_publ_contact_author_name            'Danna Freedman'
_publ_contact_author_address         '77 Massachusetts Avenue (18-592), Cambridge, MA 02139, United States'
_publ_contact_author_email           danna@mit.edu

# start Validation Reply Form
_vrf_REFLT02_NaCu2P2_0
;
PROBLEM: The number of reflections greater than the sigma threshold
RESPONSE: The number of reflections greater than the sigma threshold and number of symmmetry-indpendent reflections are both reported as 0.
;
_vrf_PLAT881_NaCu2P2_0
;
PROBLEM: No Datum for _diffrn_reflns_av_R_equivalents ...     Please Do !  
RESPONSE: These values are not calculated for this powder cif.
;
# end Validation Reply Form


#######	Begin powder crystal structure	#######
data_NaCu2P2_0
_pd_block_id	NaCu2P2_0
_pd_block_diffractogram_id	Na_Cu2_P2_raw.xy_0
_pd_phase_name
;NaCu2P2
;
_chemical_formula_structural        'Na Cu2 P2'
_chemical_formula_sum               'Na Cu2 P2'
_chemical_formula_weight	212.03

_space_group_crystal_system	tetragonal       
_space_group_name_H-M_alt	I4/mmm
_space_group_name_Hall	 '-I 4 2'
_space_group_IT_number	139
_exptl_crystal_description 'powder'
_exptl_crystal_colour 'Navy blue'

_cell_length_a	3.99793(3)
_cell_length_b	3.99793(3)
_cell_length_c	9.54894(15)
_cell_angle_alpha	90
_cell_angle_beta	90
_cell_angle_gamma	90
_cell_volume	152.625(3)
_exptl_crystal_density_diffrn	4.61371(11)
_exptl_absorpt_coefficient_mu	25.9241(6)
_diffrn_radiation_wavelength	1.540560000
_cell_formula_units_Z	2
_cell_measurement_temperature	298
_diffrn_ambient_temperature	298
_cell_measurement_pressure	101
_cell_measurement_theta_min	5
_cell_measurement_theta_max	67.51
_cell_measurement_reflns_used 59
_diffrn_reflns_number 59
_diffrn_measured_fraction_theta_full 1

loop_
	_space_group_symop_id
	_space_group_symop_operation_xyz
	  1 'x, y, z '
	  2 '-x, -y, z '
	  3 '-x, y, -z '
	  4 '-x, y, z '
	  5 '-y, -x, -z '
	  6 '-y, -x, z '
	  7 '-y, x, -z '
	  8 '-y, x, z '
	  9 'y, -x, -z '
	 10 'y, -x, z '
	 11 'y, x, -z '
	 12 'y, x, z '
	 13 'x, -y, -z '
	 14 'x, -y, z '
	 15 'x, y, -z '
	 16 '-x, -y, -z '
	 17 'x+1/2, y+1/2, z+1/2 '
	 18 '-x+1/2, -y+1/2, z+1/2 '
	 19 '-x+1/2, y+1/2, -z+1/2 '
	 20 '-x+1/2, y+1/2, z+1/2 '
	 21 '-y+1/2, -x+1/2, -z+1/2 '
	 22 '-y+1/2, -x+1/2, z+1/2 '
	 23 '-y+1/2, x+1/2, -z+1/2 '
	 24 '-y+1/2, x+1/2, z+1/2 '
	 25 'y+1/2, -x+1/2, -z+1/2 '
	 26 'y+1/2, -x+1/2, z+1/2 '
	 27 'y+1/2, x+1/2, -z+1/2 '
	 28 'y+1/2, x+1/2, z+1/2 '
	 29 'x+1/2, -y+1/2, -z+1/2 '
	 30 'x+1/2, -y+1/2, z+1/2 '
	 31 'x+1/2, y+1/2, -z+1/2 '
	 32 '-x+1/2, -y+1/2, -z+1/2 '
loop_
	_atom_site_label
	_atom_site_type_symbol
	_atom_site_site_symmetry_multiplicity
	_atom_site_fract_x
	_atom_site_fract_y
	_atom_site_fract_z
	_atom_site_occupancy
	_atom_site_B_iso_or_equiv
Na0 Na   2 0 0 0.5 1 0
Cu2 Cu   4 0 0.5 0.25 1 0
P6 P   4 0 0 0.8805(4) 1 0
loop_
	_geom_bond_atom_site_label_1
	_geom_bond_atom_site_label_2
	_geom_bond_distance
	_geom_bond_site_symmetry_1
	_geom_bond_site_symmetry_2
	Na0       P6        3.0487(13) 1_555  19_456
	Na0       P6        3.0487(13) 1_555  19_546
	Na0       P6        3.0487(13) 1_555  17_454
	Na0       P6        3.0487(13) 1_555  17_544
	Na0       P6        3.0487(13) 1_555  19_446
	Na0       P6        3.0487(13) 1_555  17_554
	Na0       P6        3.0487(13) 1_555  17_444
	Na0       P6        3.0487(13) 1_555  19_556
	Na0       Cu2       3.11364(3) 1_555   1_555
	Na0       Cu2       3.11364(3) 1_555   6_655
	Na0       Cu2       3.11364(3) 1_555   5_556
	Na0       Cu2       3.11364(3) 1_555   3_546
	Na0       Cu2       3.11364(3) 1_555   6_555
	Na0       Cu2       3.11364(3) 1_555   1_545
	Na0       Cu2       3.11364(3) 1_555   5_656
	Na0       Cu2       3.11364(3) 1_555   3_556
	Cu2       P6        2.355(2) 1_555  17_454
	Cu2       P6        2.355(2) 1_555   3_566
	Cu2       P6        2.355(2) 1_555  17_554
	Cu2       P6        2.355(2) 1_555   3_556
	Cu2       Cu2       2.82696(2) 1_555   6_565
	Cu2       Cu2       2.82696(2) 1_555   6_655
	Cu2       Cu2       2.82696(2) 1_555   6_555
	Cu2       Cu2       2.82696(2) 1_555   6_665
	Cu2       Na0       3.11364(3) 1_555   1_555
	Cu2       Na0       3.11364(3) 1_555  17_554
	Cu2       Na0       3.11364(3) 1_555  17_454
	Cu2       Na0       3.11364(3) 1_555   1_565
	P6        P6        2.283(7) 1_555   3_557
	P6        Cu2       2.355(2) 1_555   3_556
	P6        Cu2       2.355(2) 1_555   5_656
	P6        Cu2       2.355(2) 1_555   5_556
	P6        Cu2       2.355(2) 1_555   3_546
	P6        Na0       3.0487(13) 1_555  17_455
	P6        Na0       3.0487(13) 1_555  17_545
	P6        Na0       3.0487(13) 1_555  17_445
	P6        Na0       3.0487(13) 1_555  17_555
	loop_
		_geom_angle_atom_site_label_1
		_geom_angle_atom_site_label_2
		_geom_angle_atom_site_label_3
		_geom_angle
		_geom_angle_site_symmetry_1
		_geom_angle_site_symmetry_2
		_geom_angle_site_symmetry_3
	P6        Na0       P6         136.03(13) 19_546 1_555  19_456
	P6        Na0       P6         179.9999988(2) 17_454 1_555  19_546
	P6        Na0       P6         43.97(13) 17_454 1_555  19_456
	P6        Na0       P6         136.03(13) 17_544 1_555  17_454
	P6        Na0       P6         43.97(13) 17_544 1_555  19_546
	P6        Na0       P6         179.99999879(19) 17_544 1_555  19_456
	P6        Na0       P6         98.06(4) 19_446 1_555  17_544
	P6        Na0       P6         98.06(4) 19_446 1_555  17_454
	P6        Na0       P6         81.94(4) 19_446 1_555  19_546
	P6        Na0       P6         81.94(4) 19_446 1_555  19_456
	P6        Na0       P6         180.000  17_554 1_555  19_446
	P6        Na0       P6         81.94(4) 17_554 1_555  17_544
	P6        Na0       P6         81.94(4) 17_554 1_555  17_454
	P6        Na0       P6         98.06(4) 17_554 1_555  19_546
	P6        Na0       P6         98.06(4) 17_554 1_555  19_456
	P6        Na0       P6         136.03(13) 17_444 1_555  17_554
	P6        Na0       P6         43.97(13) 17_444 1_555  19_446
	P6        Na0       P6         81.94(4) 17_444 1_555  17_544
	P6        Na0       P6         81.94(4) 17_444 1_555  17_454
	P6        Na0       P6         98.06(4) 17_444 1_555  19_546
	P6        Na0       P6         98.06(4) 17_444 1_555  19_456
	P6        Na0       P6         180.000  19_556 1_555  17_444
	P6        Na0       P6         43.97(13) 19_556 1_555  17_554
	P6        Na0       P6         136.03(13) 19_556 1_555  19_446
	P6        Na0       P6         98.06(4) 19_556 1_555  17_544
	P6        Na0       P6         98.06(4) 19_556 1_555  17_454
	P6        Na0       P6         81.94(4) 19_556 1_555  19_546
	P6        Na0       P6         81.94(4) 19_556 1_555  19_456
	Cu2       Na0       P6         82.31(6)  1_555 1_555  19_556
	Cu2       Na0       P6         97.69(6)  1_555 1_555  17_444
	Cu2       Na0       P6         44.93(5)  1_555 1_555  17_554
	Cu2       Na0       P6         135.07(5)  1_555 1_555  19_446
	Cu2       Na0       P6         97.69(6)  1_555 1_555  17_544
	Cu2       Na0       P6         44.93(5)  1_555 1_555  17_454
	Cu2       Na0       P6         135.07(5)  1_555 1_555  19_546
	Cu2       Na0       P6         82.31(6)  1_555 1_555  19_456
	Cu2       Na0       Cu2        53.9966(6)  6_655 1_555   1_555
	Cu2       Na0       P6         82.31(6)  6_655 1_555  19_556
	Cu2       Na0       P6         97.69(6)  6_655 1_555  17_444
	Cu2       Na0       P6         44.93(5)  6_655 1_555  17_554
	Cu2       Na0       P6         135.07(5)  6_655 1_555  19_446
	Cu2       Na0       P6         44.93(5)  6_655 1_555  17_544
	Cu2       Na0       P6         97.69(6)  6_655 1_555  17_454
	Cu2       Na0       P6         82.31(6)  6_655 1_555  19_546
	Cu2       Na0       P6         135.07(5)  6_655 1_555  19_456
	Cu2       Na0       Cu2        180.000   5_556 1_555   6_655
	Cu2       Na0       Cu2        126.0034(6)  5_556 1_555   1_555
	Cu2       Na0       P6         97.69(6)  5_556 1_555  19_556
	Cu2       Na0       P6         82.31(6)  5_556 1_555  17_444
	Cu2       Na0       P6         135.07(5)  5_556 1_555  17_554
	Cu2       Na0       P6         44.93(5)  5_556 1_555  19_446
	Cu2       Na0       P6         135.07(5)  5_556 1_555  17_544
	Cu2       Na0       P6         82.31(6)  5_556 1_555  17_454
	Cu2       Na0       P6         97.69(6)  5_556 1_555  19_546
	Cu2       Na0       P6         44.93(5)  5_556 1_555  19_456
	Cu2       Na0       Cu2        53.9966(6)  3_546 1_555   5_556
	Cu2       Na0       Cu2        126.0034(6)  3_546 1_555   6_655
	Cu2       Na0       Cu2        180.000   3_546 1_555   1_555
	Cu2       Na0       P6         97.69(6)  3_546 1_555  19_556
	Cu2       Na0       P6         82.31(6)  3_546 1_555  17_444
	Cu2       Na0       P6         135.07(5)  3_546 1_555  17_554
	Cu2       Na0       P6         44.93(5)  3_546 1_555  19_446
	Cu2       Na0       P6         82.31(6)  3_546 1_555  17_544
	Cu2       Na0       P6         135.07(5)  3_546 1_555  17_454
	Cu2       Na0       P6         44.93(5)  3_546 1_555  19_546
	Cu2       Na0       P6         97.69(6)  3_546 1_555  19_456
	Cu2       Na0       Cu2        126.0034(6)  6_555 1_555   3_546
	Cu2       Na0       Cu2        100.1174(10)  6_555 1_555   5_556
	Cu2       Na0       Cu2        79.8826(10)  6_555 1_555   6_655
	Cu2       Na0       Cu2        53.9966(6)  6_555 1_555   1_555
	Cu2       Na0       P6         135.07(5)  6_555 1_555  19_556
	Cu2       Na0       P6         44.93(5)  6_555 1_555  17_444
	Cu2       Na0       P6         97.69(6)  6_555 1_555  17_554
	Cu2       Na0       P6         82.31(6)  6_555 1_555  19_446
	Cu2       Na0       P6         97.69(6)  6_555 1_555  17_544
	Cu2       Na0       P6         44.93(5)  6_555 1_555  17_454
	Cu2       Na0       P6         135.07(5)  6_555 1_555  19_546
	Cu2       Na0       P6         82.31(6)  6_555 1_555  19_456
	Cu2       Na0       Cu2        53.9966(6)  1_545 1_555   6_555
	Cu2       Na0       Cu2        100.1174(10)  1_545 1_555   3_546
	Cu2       Na0       Cu2        126.0034(6)  1_545 1_555   5_556
	Cu2       Na0       Cu2        53.9966(6)  1_545 1_555   6_655
	Cu2       Na0       Cu2        79.8826(10)  1_545 1_555   1_555
	Cu2       Na0       P6         135.07(5)  1_545 1_555  19_556
	Cu2       Na0       P6         44.93(5)  1_545 1_555  17_444
	Cu2       Na0       P6         97.69(6)  1_545 1_555  17_554
	Cu2       Na0       P6         82.31(6)  1_545 1_555  19_446
	Cu2       Na0       P6         44.93(5)  1_545 1_555  17_544
	Cu2       Na0       P6         97.69(6)  1_545 1_555  17_454
	Cu2       Na0       P6         82.31(6)  1_545 1_555  19_546
	Cu2       Na0       P6         135.07(5)  1_545 1_555  19_456
	Cu2       Na0       Cu2        126.0034(6)  5_656 1_555   1_545
	Cu2       Na0       Cu2        180.000   5_656 1_555   6_555
	Cu2       Na0       Cu2        53.9966(6)  5_656 1_555   3_546
	Cu2       Na0       Cu2        79.8826(10)  5_656 1_555   5_556
	Cu2       Na0       Cu2        100.1174(10)  5_656 1_555   6_655
	Cu2       Na0       Cu2        126.0034(6)  5_656 1_555   1_555
	Cu2       Na0       P6         44.93(5)  5_656 1_555  19_556
	Cu2       Na0       P6         135.07(5)  5_656 1_555  17_444
	Cu2       Na0       P6         82.31(6)  5_656 1_555  17_554
	Cu2       Na0       P6         97.69(6)  5_656 1_555  19_446
	Cu2       Na0       P6         82.31(6)  5_656 1_555  17_544
	Cu2       Na0       P6         135.07(5)  5_656 1_555  17_454
	Cu2       Na0       P6         44.93(5)  5_656 1_555  19_546
	Cu2       Na0       P6         97.69(6)  5_656 1_555  19_456
	Cu2       Na0       Cu2        53.9966(6)  3_556 1_555   5_656
	Cu2       Na0       Cu2        180.000   3_556 1_555   1_545
	Cu2       Na0       Cu2        126.0034(6)  3_556 1_555   6_555
	Cu2       Na0       Cu2        79.8826(10)  3_556 1_555   3_546
	Cu2       Na0       Cu2        53.9966(6)  3_556 1_555   5_556
	Cu2       Na0       Cu2        126.0034(6)  3_556 1_555   6_655
	Cu2       Na0       Cu2        100.1174(10)  3_556 1_555   1_555
	Cu2       Na0       P6         44.93(5)  3_556 1_555  19_556
	Cu2       Na0       P6         135.07(5)  3_556 1_555  17_444
	Cu2       Na0       P6         82.31(6)  3_556 1_555  17_554
	Cu2       Na0       P6         97.69(6)  3_556 1_555  19_446
	Cu2       Na0       P6         135.07(5)  3_556 1_555  17_544
	Cu2       Na0       P6         82.31(6)  3_556 1_555  17_454
	Cu2       Na0       P6         97.69(6)  3_556 1_555  19_546
	Cu2       Na0       P6         44.93(5)  3_556 1_555  19_456
	P6        Cu2       P6         106.25(7)  3_566 1_555  17_454
	P6        Cu2       P6         106.25(7) 17_554 1_555   3_566
	P6        Cu2       P6         116.14(15) 17_554 1_555  17_454
	P6        Cu2       P6         106.25(7)  3_556 1_555  17_554
	P6        Cu2       P6         116.14(15)  3_556 1_555   3_566
	P6        Cu2       P6         106.25(7)  3_556 1_555  17_454
	Cu2       Cu2       P6         126.88(4)  6_565 1_555   3_556
	Cu2       Cu2       P6         126.88(4)  6_565 1_555  17_554
	Cu2       Cu2       P6         53.12(4)  6_565 1_555   3_566
	Cu2       Cu2       P6         53.12(4)  6_565 1_555  17_454
	Cu2       Cu2       Cu2        180.000   6_655 1_555   6_565
	Cu2       Cu2       P6         53.12(4)  6_655 1_555   3_556
	Cu2       Cu2       P6         53.12(4)  6_655 1_555  17_554
	Cu2       Cu2       P6         126.88(4)  6_655 1_555   3_566
	Cu2       Cu2       P6         126.88(4)  6_655 1_555  17_454
	Cu2       Cu2       Cu2        90.000    6_555 1_555   6_655
	Cu2       Cu2       Cu2        90.000    6_555 1_555   6_565
	Cu2       Cu2       P6         53.12(4)  6_555 1_555   3_556
	Cu2       Cu2       P6         126.88(4)  6_555 1_555  17_554
	Cu2       Cu2       P6         126.88(4)  6_555 1_555   3_566
	Cu2       Cu2       P6         53.12(4)  6_555 1_555  17_454
	Cu2       Cu2       Cu2        180.000   6_665 1_555   6_555
	Cu2       Cu2       Cu2        90.000    6_665 1_555   6_655
	Cu2       Cu2       Cu2        90.000    6_665 1_555   6_565
	Cu2       Cu2       P6         126.88(4)  6_665 1_555   3_556
	Cu2       Cu2       P6         53.12(4)  6_665 1_555  17_554
	Cu2       Cu2       P6         53.12(4)  6_665 1_555   3_566
	Cu2       Cu2       P6         126.88(4)  6_665 1_555  17_454
	Na0       Cu2       Cu2        116.9983(3)  1_555 1_555   6_665
	Na0       Cu2       Cu2        63.0017(3)  1_555 1_555   6_555
	Na0       Cu2       Cu2        63.0017(3)  1_555 1_555   6_655
	Na0       Cu2       Cu2        116.9983(3)  1_555 1_555   6_565
	Na0       Cu2       P6         81.99(7)  1_555 1_555   3_556
	Na0       Cu2       P6         66.08(5)  1_555 1_555  17_554
	Na0       Cu2       P6         161.87(7)  1_555 1_555   3_566
	Na0       Cu2       P6         66.08(5)  1_555 1_555  17_454
	Na0       Cu2       Na0        126.0034(6) 17_554 1_555   1_555
	Na0       Cu2       Cu2        63.0017(3) 17_554 1_555   6_665
	Na0       Cu2       Cu2        116.9983(3) 17_554 1_555   6_555
	Na0       Cu2       Cu2        63.0017(3) 17_554 1_555   6_655
	Na0       Cu2       Cu2        116.9983(3) 17_554 1_555   6_565
	Na0       Cu2       P6         66.08(5) 17_554 1_555   3_556
	Na0       Cu2       P6         81.99(7) 17_554 1_555  17_554
	Na0       Cu2       P6         66.08(5) 17_554 1_555   3_566
	Na0       Cu2       P6         161.87(7) 17_554 1_555  17_454
	Na0       Cu2       Na0        79.8826(10) 17_454 1_555  17_554
	Na0       Cu2       Na0        126.0034(6) 17_454 1_555   1_555
	Na0       Cu2       Cu2        116.9983(3) 17_454 1_555   6_665
	Na0       Cu2       Cu2        63.0017(3) 17_454 1_555   6_555
	Na0       Cu2       Cu2        116.9983(3) 17_454 1_555   6_655
	Na0       Cu2       Cu2        63.0017(3) 17_454 1_555   6_565
	Na0       Cu2       P6         66.08(5) 17_454 1_555   3_556
	Na0       Cu2       P6         161.87(7) 17_454 1_555  17_554
	Na0       Cu2       P6         66.08(5) 17_454 1_555   3_566
	Na0       Cu2       P6         81.99(7) 17_454 1_555  17_454
	Na0       Cu2       Na0        126.0034(6)  1_565 1_555  17_454
	Na0       Cu2       Na0        126.0034(6)  1_565 1_555  17_554
	Na0       Cu2       Na0        79.8826(10)  1_565 1_555   1_555
	Na0       Cu2       Cu2        63.0017(3)  1_565 1_555   6_665
	Na0       Cu2       Cu2        116.9983(3)  1_565 1_555   6_555
	Na0       Cu2       Cu2        116.9983(3)  1_565 1_555   6_655
	Na0       Cu2       Cu2        63.0017(3)  1_565 1_555   6_565
	Na0       Cu2       P6         161.87(7)  1_565 1_555   3_556
	Na0       Cu2       P6         66.08(5)  1_565 1_555  17_554
	Na0       Cu2       P6         81.99(7)  1_565 1_555   3_566
	Na0       Cu2       P6         66.08(5)  1_565 1_555  17_454
	Cu2       P6        P6         121.93(7)  3_556 1_555   3_557
	Cu2       P6        Cu2        73.75(7)  5_656 1_555   3_556
	Cu2       P6        P6         121.93(7)  5_656 1_555   3_557
	Cu2       P6        Cu2        116.14(15)  5_556 1_555   5_656
	Cu2       P6        Cu2        73.75(7)  5_556 1_555   3_556
	Cu2       P6        P6         121.93(7)  5_556 1_555   3_557
	Cu2       P6        Cu2        73.75(7)  3_546 1_555   5_556
	Cu2       P6        Cu2        73.75(7)  3_546 1_555   5_656
	Cu2       P6        Cu2        116.14(15)  3_546 1_555   3_556
	Cu2       P6        P6         121.93(7)  3_546 1_555   3_557
	Na0       P6        Cu2        138.98(3) 17_455 1_555   3_546
	Na0       P6        Cu2        68.996(2) 17_455 1_555   5_556
	Na0       P6        Cu2        138.98(3) 17_455 1_555   5_656
	Na0       P6        Cu2        68.996(2) 17_455 1_555   3_556
	Na0       P6        P6         68.01(6) 17_455 1_555   3_557
	Na0       P6        Na0        136.03(13) 17_545 1_555  17_455
	Na0       P6        Cu2        68.996(2) 17_545 1_555   3_546
	Na0       P6        Cu2        138.98(3) 17_545 1_555   5_556
	Na0       P6        Cu2        68.996(2) 17_545 1_555   5_656
	Na0       P6        Cu2        138.98(3) 17_545 1_555   3_556
	Na0       P6        P6         68.01(6) 17_545 1_555   3_557
	Na0       P6        Na0        81.94(4) 17_445 1_555  17_545
	Na0       P6        Na0        81.94(4) 17_445 1_555  17_455
	Na0       P6        Cu2        68.996(2) 17_445 1_555   3_546
	Na0       P6        Cu2        68.996(2) 17_445 1_555   5_556
	Na0       P6        Cu2        138.98(3) 17_445 1_555   5_656
	Na0       P6        Cu2        138.98(3) 17_445 1_555   3_556
	Na0       P6        P6         68.01(6) 17_445 1_555   3_557
	Na0       P6        Na0        136.03(13) 17_555 1_555  17_445
	Na0       P6        Na0        81.94(4) 17_555 1_555  17_545
	Na0       P6        Na0        81.94(4) 17_555 1_555  17_455
	Na0       P6        Cu2        138.98(3) 17_555 1_555   3_546
	Na0       P6        Cu2        138.98(3) 17_555 1_555   5_556
	Na0       P6        Cu2        68.996(2) 17_555 1_555   5_656
	Na0       P6        Cu2        68.996(2) 17_555 1_555   3_556
	Na0       P6        P6         68.01(6) 17_555 1_555   3_557
#######	End powder crystal structure	#######


#######	Begin powder diffraction data	#######
data_Na_Cu2_P2_raw.xy_0
_pd_block_id	Na_Cu2_P2_raw.xy_0
_pd_calc_method	Rietveld
_diffrn_radiation_probe	x-ray
_diffrn_radiation_wavelength	1.540562000
_refine_ls_goodness_of_fit_all	3.61549
_pd_proc_ls_prof_R_factor	0.05329
_pd_proc_ls_prof_wR_factor	0.10391
_pd_proc_ls_prof_wR_expected	0.02874
loop_
	_pd_phase_id
	_pd_phase_block_id
	_pd_phase_mass_%
1	NaCu2P2_0	100
loop_
	_refln_index_h
	_refln_index_k
	_refln_index_l
	_pd_refln_phase_id
	_refln_d_spacing
	_refln_F_squared_calc
	_refln_F_squared_meas
   0    0    2 1    4.774468    15.582633    17.257961
   0    0    4 1    2.387234     9.654420    14.357181
   0    0    6 1    1.591489    10.597180    14.619128
   0    0    8 1    1.193617    24.599377    26.386436
   0    0   10 1    0.954894     1.965480     1.964570
   1    0    1 1    3.687756     3.232488     3.939896
   1    0    3 1    2.490150    20.322144    23.197016
   1    0    5 1    1.723264    20.480821    28.206220
   1    0    7 1    1.291048     0.267709     0.260280
   1    0    9 1    1.025495     2.758826     2.681773
   1    0   11 1    0.848318     3.120145     3.175879
   1    1    0 1    2.826962     3.955732     4.290730
   1    1    2 1    2.432537   117.546216   104.772471
   1    1    4 1    1.823911   100.617139   114.948769
   1    1    6 1    1.386826    50.302067    50.579503
   1    1    8 1    1.099618     1.934609     1.975951
   1    1   10 1    0.904677    36.723545    40.098559
   2    0    0 1    1.998964    94.017839    91.278750
   2    0    2 1    1.843878    36.209727    35.152698
   2    0    4 1    1.532610    23.611779    26.828195
   2    0    6 1    1.245075    30.116248    33.446765
   2    0    8 1    1.024819    76.181614    80.908221
   2    0   10 1    0.861632     6.077488     6.083884
   2    1    1 1    1.757388     3.151489     3.424511
   2    1    3 1    1.558836    26.448679    28.119212
   2    1    5 1    1.305211    30.508109    38.695339
   2    1    7 1    1.084519     0.641777     0.632302
   2    1    9 1    0.912432     5.082629     5.127873
   2    2    0 1    1.413481    64.127878    68.511375
   2    2    2 1    1.355334    24.338970    26.695492
   2    2    4 1    1.216268    14.539880    14.375954
   2    2    6 1    1.056837    22.724881    24.908908
   2    2    8 1    0.911956    61.014267    64.730640
   3    0    1 1    1.319851     1.479157     1.484881
   3    0    3 1    1.229252    10.027112    10.024831
   3    0    5 1    1.092874    12.174540    12.629049
   3    0    7 1    0.953259     0.345161     0.344618
   3    1    0 1    1.264256     2.650963     2.641556
   3    1    2 1    1.222136   104.648125   119.599274
   3    1    4 1    1.117252   110.268754   112.117274
   3    1    6 1    0.989923    52.263135    51.409370
   3    1    8 1    0.867913     1.447539     1.445043
   3    2    1 1    1.101425     2.925843     3.005064
   3    2    3 1    1.047108    16.032089    16.476917
   3    2    5 1    0.958918    20.032948    20.954323
   3    2    7 1    0.860431     0.691058     0.683098
   3    3    0 1    0.942321     0.421433     0.421817
   3    3    2 1    0.924487    29.912532    30.925640
   3    3    4 1    0.876505    36.229511    35.862921
   4    0    0 1    0.999482    37.317336    39.730903
   4    0    2 1    0.978276    13.313594    13.543780
   4    0    4 1    0.921939     6.536217     6.651241
   4    0    6 1    0.846409    14.423706    15.137709
   4    1    1 1    0.964679     2.808536     2.837113
   4    1    3 1    0.927555    13.178783    13.289987
   4    1    5 1    0.864586    16.799544    17.425716
   4    2    0 1    0.893964    60.154565    61.161235
   4    2    2 1    0.878694    20.944038    20.575660
   4    2    4 1    0.837188     9.512515     9.531428
loop_
	_pd_meas_2theta_scan
	_pd_proc_intensity_total
	_pd_proc_ls_weight
	_pd_calc_intensity_total
	_pd_proc_intensity_bkg_calc
  10.000000  1209.000000     0.000827  1231.700986     0.000000 
  10.020000  1223.000000     0.000818  1231.450583     0.000000 
  10.040000  1248.000000     0.000801  1231.200495     0.000000 
  10.060000  1200.000000     0.000833  1230.950724     0.000000 
  10.080000  1178.000000     0.000849  1230.701268     0.000000 
  10.100000  1233.000000     0.000811  1230.452128     0.000000 
  10.120000  1206.000000     0.000829  1230.203302     0.000000 
  10.140000  1200.000000     0.000833  1229.954792     0.000000 
  10.160000  1210.000000     0.000826  1229.706596     0.000000 
  10.180000  1201.000000     0.000833  1229.458714     0.000000 
  10.200000  1178.000000     0.000849  1229.211146     0.000000 
  10.220000  1156.000000     0.000865  1228.963892     0.000000 
  10.240000  1178.000000     0.000849  1228.716951     0.000000 
  10.260000  1211.000000     0.000826  1228.470323     0.000000 
  10.280000  1213.000000     0.000824  1228.224007     0.000000 
  10.300000  1223.000000     0.000818  1227.978004     0.000000 
  10.320000  1195.000000     0.000837  1227.732314     0.000000 
  10.340000  1176.000000     0.000850  1227.486935     0.000000 
  10.360000  1180.000000     0.000847  1227.241867     0.000000 
  10.380000  1192.000000     0.000839  1226.997111     0.000000 
  10.400000  1168.000000     0.000856  1226.752666     0.000000 
  10.420000  1209.000000     0.000827  1226.508531     0.000000 
  10.440000  1218.000000     0.000821  1226.264707     0.000000 
  10.460000  1201.000000     0.000833  1226.021192     0.000000 
  10.480000  1228.000000     0.000814  1225.777988     0.000000 
  10.500000  1204.000000     0.000831  1225.535093     0.000000 
  10.520000  1168.000000     0.000856  1225.292507     0.000000 
  10.540000  1183.000000     0.000845  1225.050230     0.000000 
  10.560000  1200.000000     0.000833  1224.808261     0.000000 
  10.580000  1205.000000     0.000830  1224.566601     0.000000 
  10.600000  1203.000000     0.000831  1224.325249     0.000000 
  10.620000  1215.000000     0.000823  1224.084204     0.000000 
  10.640000  1224.000000     0.000817  1223.843467     0.000000 
  10.660000  1208.000000     0.000828  1223.603037     0.000000 
  10.680000  1145.000000     0.000873  1223.362913     0.000000 
  10.700000  1198.000000     0.000835  1223.123097     0.000000 
  10.720000  1176.000000     0.000850  1222.883586     0.000000 
  10.740000  1183.000000     0.000845  1222.644381     0.000000 
  10.760000  1230.000000     0.000813  1222.405482     0.000000 
  10.780000  1271.000000     0.000787  1222.166888     0.000000 
  10.800000  1234.000000     0.000810  1221.928600     0.000000 
  10.820000  1237.000000     0.000808  1221.690616     0.000000 
  10.840000  1214.000000     0.000824  1221.452936     0.000000 
  10.860000  1191.000000     0.000840  1221.215561     0.000000 
  10.880000  1207.000000     0.000829  1220.978489     0.000000 
  10.900000  1241.000000     0.000806  1220.741721     0.000000 
  10.920000  1223.000000     0.000818  1220.505257     0.000000 
  10.940000  1236.000000     0.000809  1220.269095     0.000000 
  10.960000  1203.000000     0.000831  1220.033236     0.000000 
  10.980000  1246.000000     0.000803  1219.797680     0.000000 
  11.000000  1249.000000     0.000801  1219.562425     0.000000 
  11.020000  1206.000000     0.000829  1219.327473     0.000000 
  11.040000  1173.000000     0.000853  1219.092822     0.000000 
  11.060000  1211.000000     0.000826  1218.858472     0.000000 
  11.080000  1251.000000     0.000799  1218.624423     0.000000 
  11.100000  1215.000000     0.000823  1218.390675     0.000000 
  11.120000  1223.000000     0.000818  1218.157227     0.000000 
  11.140000  1229.000000     0.000814  1217.924080     0.000000 
  11.160000  1192.000000     0.000839  1217.691232     0.000000 
  11.180000  1218.000000     0.000821  1217.458683     0.000000 
  11.200000  1242.000000     0.000805  1217.226434     0.000000 
  11.220000  1196.000000     0.000836  1216.994484     0.000000 
  11.240000  1178.000000     0.000849  1216.762832     0.000000 
  11.260000  1242.000000     0.000805  1216.531479     0.000000 
  11.280000  1242.000000     0.000805  1216.300424     0.000000 
  11.300000  1199.000000     0.000834  1216.069666     0.000000 
  11.320000  1211.000000     0.000826  1215.839207     0.000000 
  11.340000  1222.000000     0.000818  1215.609044     0.000000 
  11.360000  1199.000000     0.000834  1215.379178     0.000000 
  11.380000  1173.000000     0.000853  1215.149609     0.000000 
  11.400000  1179.000000     0.000848  1214.920336     0.000000 
  11.420000  1176.000000     0.000850  1214.691359     0.000000 
  11.440000  1173.000000     0.000853  1214.462678     0.000000 
  11.460000  1214.000000     0.000824  1214.234293     0.000000 
  11.480000  1226.000000     0.000816  1214.006202     0.000000 
  11.500000  1209.000000     0.000827  1213.778407     0.000000 
  11.520000  1183.000000     0.000845  1213.550906     0.000000 
  11.540000  1203.000000     0.000831  1213.323700     0.000000 
  11.560000  1206.000000     0.000829  1213.096787     0.000000 
  11.580000  1206.000000     0.000829  1212.870168     0.000000 
  11.600000  1224.000000     0.000817  1212.643843     0.000000 
  11.620000  1204.000000     0.000831  1212.417811     0.000000 
  11.640000  1190.000000     0.000840  1212.192072     0.000000 
  11.660000  1175.000000     0.000851  1211.966626     0.000000 
  11.680000  1191.000000     0.000840  1211.741471     0.000000 
  11.700000  1177.000000     0.000850  1211.516609     0.000000 
  11.720000  1159.000000     0.000863  1211.292039     0.000000 
  11.740000  1195.000000     0.000837  1211.067760     0.000000 
  11.760000  1243.000000     0.000805  1210.843772     0.000000 
  11.780000  1273.000000     0.000786  1210.620075     0.000000 
  11.800000  1285.000000     0.000778  1210.396669     0.000000 
  11.820000  1224.000000     0.000817  1210.173553     0.000000 
  11.840000  1220.000000     0.000820  1209.950727     0.000000 
  11.860000  1270.000000     0.000787  1209.728191     0.000000 
  11.880000  1241.000000     0.000806  1209.505945     0.000000 
  11.900000  1234.000000     0.000810  1209.283988     0.000000 
  11.920000  1215.000000     0.000823  1209.062319     0.000000 
  11.940000  1181.000000     0.000847  1208.840939     0.000000 
  11.960000  1201.000000     0.000833  1208.619848     0.000000 
  11.980000  1252.000000     0.000799  1208.399045     0.000000 
  12.000000  1238.000000     0.000808  1208.178529     0.000000 
  12.020000  1215.000000     0.000823  1207.958301     0.000000 
  12.040000  1239.000000     0.000807  1207.738360     0.000000 
  12.060000  1214.000000     0.000824  1207.518706     0.000000 
  12.080000  1222.000000     0.000818  1207.299339     0.000000 
  12.100000  1178.000000     0.000849  1207.080258     0.000000 
  12.120000  1196.000000     0.000836  1206.861464     0.000000 
  12.140000  1238.000000     0.000808  1206.642955     0.000000 
  12.160000  1246.000000     0.000803  1206.424732     0.000000 
  12.180000  1183.000000     0.000845  1206.206793     0.000000 
  12.200000  1195.000000     0.000837  1205.989140     0.000000 
  12.220000  1217.000000     0.000822  1205.771772     0.000000 
  12.240000  1183.000000     0.000845  1205.554688     0.000000 
  12.260000  1167.000000     0.000857  1205.337888     0.000000 
  12.280000  1200.000000     0.000833  1205.121372     0.000000 
  12.300000  1237.000000     0.000808  1204.905140     0.000000 
  12.320000  1199.000000     0.000834  1204.689191     0.000000 
  12.340000  1200.000000     0.000833  1204.473525     0.000000 
  12.360000  1218.000000     0.000821  1204.258141     0.000000 
  12.380000  1227.000000     0.000815  1204.043040     0.000000 
  12.400000  1211.000000     0.000826  1203.828222     0.000000 
  12.420000  1245.000000     0.000803  1203.613685     0.000000 
  12.440000  1215.000000     0.000823  1203.399430     0.000000 
  12.460000  1199.000000     0.000834  1203.185456     0.000000 
  12.480000  1212.000000     0.000825  1202.971763     0.000000 
  12.500000  1177.000000     0.000850  1202.758351     0.000000 
  12.520000  1200.000000     0.000833  1202.545220     0.000000 
  12.540000  1214.000000     0.000824  1202.332368     0.000000 
  12.560000  1206.000000     0.000829  1202.119797     0.000000 
  12.580000  1197.000000     0.000835  1201.907506     0.000000 
  12.600000  1218.000000     0.000821  1201.695493     0.000000 
  12.620000  1223.000000     0.000818  1201.483760     0.000000 
  12.640000  1165.000000     0.000858  1201.272306     0.000000 
  12.660000  1157.000000     0.000864  1201.061131     0.000000 
  12.680000  1215.000000     0.000823  1200.850233     0.000000 
  12.700000  1208.000000     0.000828  1200.639614     0.000000 
  12.720000  1244.000000     0.000804  1200.429272     0.000000 
  12.740000  1206.000000     0.000829  1200.219208     0.000000 
  12.760000  1197.000000     0.000835  1200.009421     0.000000 
  12.780000  1208.000000     0.000828  1199.799911     0.000000 
  12.800000  1158.000000     0.000864  1199.590678     0.000000 
  12.820000  1196.000000     0.000836  1199.381721     0.000000 
  12.840000  1249.000000     0.000801  1199.173040     0.000000 
  12.860000  1137.000000     0.000880  1198.964635     0.000000 
  12.880000  1176.000000     0.000850  1198.756506     0.000000 
  12.900000  1235.000000     0.000810  1198.548651     0.000000 
  12.920000  1209.000000     0.000827  1198.341072     0.000000 
  12.940000  1227.000000     0.000815  1198.133768     0.000000 
  12.960000  1197.000000     0.000835  1197.926738     0.000000 
  12.980000  1217.000000     0.000822  1197.719982     0.000000 
  13.000000  1171.000000     0.000854  1197.513500     0.000000 
  13.020000  1196.000000     0.000836  1197.307291     0.000000 
  13.040000  1200.000000     0.000833  1197.101356     0.000000 
  13.060000  1164.000000     0.000859  1196.895694     0.000000 
  13.080000  1214.000000     0.000824  1196.690305     0.000000 
  13.100000  1236.000000     0.000809  1196.485188     0.000000 
  13.120000  1194.000000     0.000838  1196.280344     0.000000 
  13.140000  1195.000000     0.000837  1196.075772     0.000000 
  13.160000  1185.000000     0.000844  1195.871471     0.000000 
  13.180000  1159.000000     0.000863  1195.667442     0.000000 
  13.200000  1178.000000     0.000849  1195.463684     0.000000 
  13.220000  1146.000000     0.000873  1195.260196     0.000000 
  13.240000  1152.000000     0.000868  1195.056980     0.000000 
  13.260000  1173.000000     0.000853  1194.854034     0.000000 
  13.280000  1173.000000     0.000853  1194.651358     0.000000 
  13.300000  1201.000000     0.000833  1194.448951     0.000000 
  13.320000  1187.000000     0.000842  1194.246815     0.000000 
  13.340000  1181.000000     0.000847  1194.044947     0.000000 
  13.360000  1173.000000     0.000853  1193.843349     0.000000 
  13.380000  1196.000000     0.000836  1193.642019     0.000000 
  13.400000  1227.000000     0.000815  1193.440958     0.000000 
  13.420000  1167.000000     0.000857  1193.240164     0.000000 
  13.440000  1170.000000     0.000855  1193.039639     0.000000 
  13.460000  1193.000000     0.000838  1192.839382     0.000000 
  13.480000  1169.000000     0.000855  1192.639392     0.000000 
  13.500000  1180.000000     0.000847  1192.439669     0.000000 
  13.520000  1194.000000     0.000838  1192.240212     0.000000 
  13.540000  1169.000000     0.000855  1192.041023     0.000000 
  13.560000  1169.000000     0.000855  1191.842099     0.000000 
  13.580000  1215.000000     0.000823  1191.643442     0.000000 
  13.600000  1184.000000     0.000845  1191.445050     0.000000 
  13.620000  1180.000000     0.000847  1191.246924     0.000000 
  13.640000  1213.000000     0.000824  1191.049064     0.000000 
  13.660000  1201.000000     0.000833  1190.851468     0.000000 
  13.680000  1204.000000     0.000831  1190.654137     0.000000 
  13.700000  1230.000000     0.000813  1190.457070     0.000000 
  13.720000  1187.000000     0.000842  1190.260267     0.000000 
  13.740000  1178.000000     0.000849  1190.063729     0.000000 
  13.760000  1189.000000     0.000841  1189.867453     0.000000 
  13.780000  1183.000000     0.000845  1189.671442     0.000000 
  13.800000  1202.000000     0.000832  1189.475693     0.000000 
  13.820000  1158.000000     0.000864  1189.280207     0.000000 
  13.840000  1166.000000     0.000858  1189.084984     0.000000 
  13.860000  1211.000000     0.000826  1188.890023     0.000000 
  13.880000  1168.000000     0.000856  1188.695324     0.000000 
  13.900000  1143.000000     0.000875  1188.500887     0.000000 
  13.920000  1161.000000     0.000861  1188.306711     0.000000 
  13.940000  1171.000000     0.000854  1188.112797     0.000000 
  13.960000  1208.000000     0.000828  1187.919143     0.000000 
  13.980000  1218.000000     0.000821  1187.725750     0.000000 
  14.000000  1159.000000     0.000863  1187.532618     0.000000 
  14.020000  1147.000000     0.000872  1187.339746     0.000000 
  14.040000  1184.000000     0.000845  1187.147133     0.000000 
  14.060000  1162.000000     0.000861  1186.954781     0.000000 
  14.080000  1200.000000     0.000833  1186.762687     0.000000 
  14.100000  1144.000000     0.000874  1186.570853     0.000000 
  14.120000  1160.000000     0.000862  1186.379278     0.000000 
  14.140000  1138.000000     0.000879  1186.187961     0.000000 
  14.160000  1147.000000     0.000872  1185.996902     0.000000 
  14.180000  1174.000000     0.000852  1185.806102     0.000000 
  14.200000  1145.000000     0.000873  1185.615559     0.000000 
  14.220000  1162.000000     0.000861  1185.425274     0.000000 
  14.240000  1141.000000     0.000876  1185.235246     0.000000 
  14.260000  1190.000000     0.000840  1185.045475     0.000000 
  14.280000  1198.000000     0.000835  1184.855961     0.000000 
  14.300000  1213.000000     0.000824  1184.666703     0.000000 
  14.320000  1207.000000     0.000829  1184.477702     0.000000 
  14.340000  1215.000000     0.000823  1184.288956     0.000000 
  14.360000  1196.000000     0.000836  1184.100466     0.000000 
  14.380000  1175.000000     0.000851  1183.912232     0.000000 
  14.400000  1181.000000     0.000847  1183.724252     0.000000 
  14.420000  1191.000000     0.000840  1183.536528     0.000000 
  14.440000  1195.000000     0.000837  1183.349058     0.000000 
  14.460000  1219.000000     0.000820  1183.161843     0.000000 
  14.480000  1199.000000     0.000834  1182.974881     0.000000 
  14.500000  1212.000000     0.000825  1182.788174     0.000000 
  14.520000  1226.000000     0.000816  1182.601720     0.000000 
  14.540000  1193.000000     0.000838  1182.415519     0.000000 
  14.560000  1164.000000     0.000859  1182.229572     0.000000 
  14.580000  1135.000000     0.000881  1182.043877     0.000000 
  14.600000  1117.000000     0.000895  1181.858435     0.000000 
  14.620000  1106.000000     0.000904  1181.673245     0.000000 
  14.640000  1139.000000     0.000878  1181.488308     0.000000 
  14.660000  1175.000000     0.000851  1181.303622     0.000000 
  14.680000  1208.000000     0.000828  1181.119187     0.000000 
  14.700000  1208.000000     0.000828  1180.935004     0.000000 
  14.720000  1191.000000     0.000840  1180.751071     0.000000 
  14.740000  1172.000000     0.000853  1180.567390     0.000000 
  14.760000  1199.000000     0.000834  1180.383959     0.000000 
  14.780000  1222.000000     0.000818  1180.200778     0.000000 
  14.800000  1242.000000     0.000805  1180.017847     0.000000 
  14.820000  1213.000000     0.000824  1179.835166     0.000000 
  14.840000  1165.000000     0.000858  1179.652734     0.000000 
  14.860000  1153.000000     0.000867  1179.470551     0.000000 
  14.880000  1207.000000     0.000829  1179.288618     0.000000 
  14.900000  1153.000000     0.000867  1179.106933     0.000000 
  14.920000  1187.000000     0.000842  1178.925496     0.000000 
  14.940000  1208.000000     0.000828  1178.744307     0.000000 
  14.960000  1174.000000     0.000852  1178.563367     0.000000 
  14.980000  1165.000000     0.000858  1178.382674     0.000000 
  15.000000  1201.000000     0.000833  1178.202228     0.000000 
  15.020000  1177.000000     0.000850  1178.022030     0.000000 
  15.040000  1178.000000     0.000849  1177.842078     0.000000 
  15.060000  1226.000000     0.000816  1177.662373     0.000000 
  15.080000  1231.000000     0.000812  1177.482915     0.000000 
  15.100000  1135.000000     0.000881  1177.303702     0.000000 
  15.120000  1168.000000     0.000856  1177.124735     0.000000 
  15.140000  1221.000000     0.000819  1176.946014     0.000000 
  15.160000  1141.000000     0.000876  1176.767538     0.000000 
  15.180000  1176.000000     0.000850  1176.589308     0.000000 
  15.200000  1160.000000     0.000862  1176.411322     0.000000 
  15.220000  1218.000000     0.000821  1176.233580     0.000000 
  15.240000  1216.000000     0.000822  1176.056083     0.000000 
  15.260000  1182.000000     0.000846  1175.878830     0.000000 
  15.280000  1195.000000     0.000837  1175.701821     0.000000 
  15.300000  1179.000000     0.000848  1175.525056     0.000000 
  15.320000  1166.000000     0.000858  1175.348533     0.000000 
  15.340000  1179.000000     0.000848  1175.172254     0.000000 
  15.360000  1195.000000     0.000837  1174.996217     0.000000 
  15.380000  1193.000000     0.000838  1174.820423     0.000000 
  15.400000  1199.000000     0.000834  1174.644872     0.000000 
  15.420000  1218.000000     0.000821  1174.469562     0.000000 
  15.440000  1140.000000     0.000877  1174.294494     0.000000 
  15.460000  1157.000000     0.000864  1174.119667     0.000000 
  15.480000  1173.000000     0.000853  1173.945082     0.000000 
  15.500000  1159.000000     0.000863  1173.770738     0.000000 
  15.520000  1145.000000     0.000873  1173.596635     0.000000 
  15.540000  1179.000000     0.000848  1173.422772     0.000000 
  15.560000  1201.000000     0.000833  1173.249149     0.000000 
  15.580000  1187.000000     0.000842  1173.075766     0.000000 
  15.600000  1162.000000     0.000861  1172.902623     0.000000 
  15.620000  1182.000000     0.000846  1172.729720     0.000000 
  15.640000  1154.000000     0.000867  1172.557056     0.000000 
  15.660000  1147.000000     0.000872  1172.384630     0.000000 
  15.680000  1132.000000     0.000883  1172.212444     0.000000 
  15.700000  1109.000000     0.000902  1172.040496     0.000000 
  15.720000  1119.000000     0.000894  1171.868786     0.000000 
  15.740000  1126.000000     0.000888  1171.697314     0.000000 
  15.760000  1186.000000     0.000843  1171.526080     0.000000 
  15.780000  1133.000000     0.000883  1171.355084     0.000000 
  15.800000  1177.000000     0.000850  1171.184324     0.000000 
  15.820000  1165.000000     0.000858  1171.013802     0.000000 
  15.840000  1199.000000     0.000834  1170.843516     0.000000 
  15.860000  1226.000000     0.000816  1170.673467     0.000000 
  15.880000  1220.000000     0.000820  1170.503654     0.000000 
  15.900000  1162.000000     0.000861  1170.334078     0.000000 
  15.920000  1181.000000     0.000847  1170.164736     0.000000 
  15.940000  1155.000000     0.000866  1169.995631     0.000000 
  15.960000  1135.000000     0.000881  1169.826760     0.000000 
  15.980000  1124.000000     0.000890  1169.658125     0.000000 
  16.000000  1113.000000     0.000898  1169.489724     0.000000 
  16.020000  1181.000000     0.000847  1169.321558     0.000000 
  16.040000  1178.000000     0.000849  1169.153626     0.000000 
  16.060000  1181.000000     0.000847  1168.985928     0.000000 
  16.080000  1176.000000     0.000850  1168.818464     0.000000 
  16.100000  1122.000000     0.000891  1168.651233     0.000000 
  16.120000  1156.000000     0.000865  1168.484235     0.000000 
  16.140000  1133.000000     0.000883  1168.317471     0.000000 
  16.160000  1160.000000     0.000862  1168.150939     0.000000 
  16.180000  1166.000000     0.000858  1167.984640     0.000000 
  16.200000  1180.000000     0.000847  1167.818573     0.000000 
  16.220000  1154.000000     0.000867  1167.652738     0.000000 
  16.240000  1144.000000     0.000874  1167.487135     0.000000 
  16.260000  1168.000000     0.000856  1167.321763     0.000000 
  16.280000  1141.000000     0.000876  1167.156623     0.000000 
  16.300000  1118.000000     0.000894  1166.991713     0.000000 
  16.320000  1147.000000     0.000872  1166.827035     0.000000 
  16.340000  1167.000000     0.000857  1166.662587     0.000000 
  16.360000  1138.000000     0.000879  1166.498369     0.000000 
  16.380000  1148.000000     0.000871  1166.334381     0.000000 
  16.400000  1135.000000     0.000881  1166.170623     0.000000 
  16.420000  1154.000000     0.000867  1166.007095     0.000000 
  16.440000  1148.000000     0.000871  1165.843796     0.000000 
  16.460000  1133.000000     0.000883  1165.680726     0.000000 
  16.480000  1095.000000     0.000913  1165.517885     0.000000 
  16.500000  1167.000000     0.000857  1165.355272     0.000000 
  16.520000  1179.000000     0.000848  1165.192888     0.000000 
  16.540000  1142.000000     0.000876  1165.030732     0.000000 
  16.560000  1126.000000     0.000888  1164.868804     0.000000 
  16.580000  1159.000000     0.000863  1164.707103     0.000000 
  16.600000  1134.000000     0.000882  1164.545629     0.000000 
  16.620000  1166.000000     0.000858  1164.384383     0.000000 
  16.640000  1171.000000     0.000854  1164.223364     0.000000 
  16.660000  1121.000000     0.000892  1164.062571     0.000000 
  16.680000  1156.000000     0.000865  1163.902004     0.000000 
  16.700000  1136.000000     0.000880  1163.741664     0.000000 
  16.720000  1143.000000     0.000875  1163.581550     0.000000 
  16.740000  1156.000000     0.000865  1163.421661     0.000000 
  16.760000  1168.000000     0.000856  1163.261998     0.000000 
  16.780000  1200.000000     0.000833  1163.102560     0.000000 
  16.800000  1148.000000     0.000871  1162.943346     0.000000 
  16.820000  1140.000000     0.000877  1162.784358     0.000000 
  16.840000  1151.000000     0.000869  1162.625594     0.000000 
  16.860000  1168.000000     0.000856  1162.467054     0.000000 
  16.880000  1171.000000     0.000854  1162.308738     0.000000 
  16.900000  1219.000000     0.000820  1162.150646     0.000000 
  16.920000  1109.000000     0.000902  1161.992777     0.000000 
  16.940000  1139.000000     0.000878  1161.835131     0.000000 
  16.960000  1134.000000     0.000882  1161.677709     0.000000 
  16.980000  1166.000000     0.000858  1161.520509     0.000000 
  17.000000  1159.000000     0.000863  1161.363532     0.000000 
  17.020000  1148.000000     0.000871  1161.206777     0.000000 
  17.040000  1162.000000     0.000861  1161.050244     0.000000 
  17.060000  1122.000000     0.000891  1160.893932     0.000000 
  17.080000  1101.000000     0.000908  1160.737843     0.000000 
  17.100000  1134.000000     0.000882  1160.581974     0.000000 
  17.120000  1134.000000     0.000882  1160.426327     0.000000 
  17.140000  1164.000000     0.000859  1160.270901     0.000000 
  17.160000  1164.000000     0.000859  1160.115695     0.000000 
  17.180000  1163.000000     0.000860  1159.960709     0.000000 
  17.200000  1127.000000     0.000887  1159.805944     0.000000 
  17.220000  1144.000000     0.000874  1159.651398     0.000000 
  17.240000  1137.000000     0.000880  1159.497072     0.000000 
  17.260000  1165.000000     0.000858  1159.342966     0.000000 
  17.280000  1197.000000     0.000835  1159.189079     0.000000 
  17.300000  1197.000000     0.000835  1159.035410     0.000000 
  17.320000  1168.000000     0.000856  1158.881960     0.000000 
  17.340000  1126.000000     0.000888  1158.728729     0.000000 
  17.360000  1130.000000     0.000885  1158.575716     0.000000 
  17.380000  1106.000000     0.000904  1158.422921     0.000000 
  17.400000  1153.000000     0.000867  1158.270343     0.000000 
  17.420000  1169.000000     0.000855  1158.117984     0.000000 
  17.440000  1131.000000     0.000884  1157.965841     0.000000 
  17.460000  1138.000000     0.000879  1157.813915     0.000000 
  17.480000  1090.000000     0.000917  1157.662206     0.000000 
  17.500000  1112.000000     0.000899  1157.510714     0.000000 
  17.520000  1158.000000     0.000864  1157.359438     0.000000 
  17.540000  1117.000000     0.000895  1157.208378     0.000000 
  17.560000  1134.000000     0.000882  1157.057534     0.000000 
  17.580000  1145.000000     0.000873  1156.906906     0.000000 
  17.600000  1108.000000     0.000903  1156.756493     0.000000 
  17.620000  1104.000000     0.000906  1156.606295     0.000000 
  17.640000  1135.000000     0.000881  1156.456312     0.000000 
  17.660000  1159.000000     0.000863  1156.306543     0.000000 
  17.680000  1176.000000     0.000850  1156.156989     0.000000 
  17.700000  1106.000000     0.000904  1156.007649     0.000000 
  17.720000  1166.000000     0.000858  1155.858523     0.000000 
  17.740000  1135.000000     0.000881  1155.709611     0.000000 
  17.760000  1136.000000     0.000880  1155.560913     0.000000 
  17.780000  1159.000000     0.000863  1160.605503     0.000000 
  17.800000  1093.000000     0.000915  1160.730614     0.000000 
  17.820000  1157.000000     0.000864  1160.878095     0.000000 
  17.840000  1135.000000     0.000881  1161.050408     0.000000 
  17.860000  1143.000000     0.000875  1161.250361     0.000000 
  17.880000  1146.000000     0.000873  1161.481179     0.000000 
  17.900000  1169.000000     0.000855  1161.746569     0.000000 
  17.920000  1170.000000     0.000855  1162.050823     0.000000 
  17.940000  1212.000000     0.000825  1162.398918     0.000000 
  17.960000  1231.000000     0.000812  1162.796660     0.000000 
  17.980000  1268.000000     0.000789  1163.250855     0.000000 
  18.000000  1228.000000     0.000814  1163.769519     0.000000 
  18.020000  1143.000000     0.000875  1164.362146     0.000000 
  18.040000  1191.000000     0.000840  1165.040053     0.000000 
  18.060000  1209.000000     0.000827  1171.047184     0.000000 
  18.080000  1226.000000     0.000816  1172.336162     0.000000 
  18.100000  1241.000000     0.000806  1173.807218     0.000000 
  18.120000  1240.000000     0.000806  1175.492466     0.000000 
  18.140000  1223.000000     0.000818  1177.431440     0.000000 
  18.160000  1258.000000     0.000795  1179.673246     0.000000 
  18.180000  1335.000000     0.000749  1182.279490     0.000000 
  18.200000  1367.000000     0.000732  1185.328296     0.000000 
  18.220000  1378.000000     0.000726  1188.919924     0.000000 
  18.240000  1430.000000     0.000699  1193.184749     0.000000 
  18.260000  1518.000000     0.000659  1198.294802     0.000000 
  18.280000  1552.000000     0.000644  1204.480825     0.000000 
  18.300000  1606.000000     0.000623  1212.058061     0.000000 
  18.320000  1711.000000     0.000584  1221.466273     0.000000 
  18.340000  1799.000000     0.000556  1233.333727     0.000000 
  18.360000  2078.000000     0.000481  1248.582990     0.000000 
  18.380000  2500.000000     0.000400  1268.612824     0.000000 
  18.400000  2940.000000     0.000340  1295.625348     0.000000 
  18.420000  4015.000000     0.000249  1333.246769     0.000000 
  18.440000  5249.000000     0.000191  1387.800031     0.000000 
  18.460000  5695.000000     0.000176  1471.890444     0.000000 
  18.480000  6672.000000     0.000150  1629.389900     0.000000 
  18.500000  8648.000000     0.000116  2137.354151     0.000000 
  18.520000  9989.000000     0.000100  4245.955039     0.000000 
  18.540000  13172.000000     0.000076  10067.333012     0.000000 
  18.560000  18884.000000     0.000053  17726.193214     0.000000 
  18.580000  18854.000000     0.000053  19167.428583     0.000000 
  18.600000  12947.000000     0.000077  15555.515723     0.000000 
  18.620000  10233.000000     0.000098  11769.256662     0.000000 
  18.640000  5761.000000     0.000174  6937.273820     0.000000 
  18.660000  2488.000000     0.000402  3364.487199     0.000000 
  18.680000  1686.000000     0.000593  1933.332397     0.000000 
  18.700000  1530.000000     0.000654  1548.117960     0.000000 
  18.720000  1428.000000     0.000700  1422.261873     0.000000 
  18.740000  1347.000000     0.000742  1353.973580     0.000000 
  18.760000  1316.000000     0.000760  1308.779906     0.000000 
  18.780000  1320.000000     0.000758  1276.997880     0.000000 
  18.800000  1241.000000     0.000806  1253.767375     0.000000 
  18.820000  1223.000000     0.000818  1236.255711     0.000000 
  18.840000  1214.000000     0.000824  1222.714889     0.000000 
  18.860000  1199.000000     0.000834  1212.018292     0.000000 
  18.880000  1215.000000     0.000823  1203.412989     0.000000 
  18.900000  1216.000000     0.000822  1196.380099     0.000000 
  18.920000  1230.000000     0.000813  1190.552506     0.000000 
  18.940000  1244.000000     0.000804  1185.664474     0.000000 
  18.960000  1184.000000     0.000845  1181.519777     0.000000 
  18.980000  1167.000000     0.000857  1177.970940     0.000000 
  19.000000  1206.000000     0.000829  1174.905383     0.000000 
  19.020000  1164.000000     0.000859  1172.235947     0.000000 
  19.040000  1163.000000     0.000860  1169.894299     0.000000 
  19.060000  1177.000000     0.000850  1167.826252     0.000000 
  19.080000  1135.000000     0.000881  1165.988385     0.000000 
  19.100000  1171.000000     0.000854  1164.345576     0.000000 
  19.120000  1164.000000     0.000859  1162.869165     0.000000 
  19.140000  1191.000000     0.000840  1161.535575     0.000000 
  19.160000  1200.000000     0.000833  1160.325274     0.000000 
  19.180000  1150.000000     0.000870  1159.221959     0.000000 
  19.200000  1120.000000     0.000893  1153.495006     0.000000 
  19.220000  1105.000000     0.000905  1152.872844     0.000000 
  19.240000  1132.000000     0.000883  1152.293762     0.000000 
  19.260000  1171.000000     0.000854  1151.752887     0.000000 
  19.280000  1158.000000     0.000864  1151.246015     0.000000 
  19.300000  1150.000000     0.000870  1150.769512     0.000000 
  19.320000  1207.000000     0.000829  1150.320214     0.000000 
  19.340000  1199.000000     0.000834  1149.895364     0.000000 
  19.360000  1171.000000     0.000854  1149.492548     0.000000 
  19.380000  1172.000000     0.000853  1144.204050     0.000000 
  19.400000  1151.000000     0.000869  1144.072073     0.000000 
  19.420000  1159.000000     0.000863  1143.940292     0.000000 
  19.440000  1180.000000     0.000847  1143.808704     0.000000 
  19.460000  1157.000000     0.000864  1143.677311     0.000000 
  19.480000  1155.000000     0.000866  1143.546112     0.000000 
  19.500000  1130.000000     0.000885  1143.415106     0.000000 
  19.520000  1143.000000     0.000875  1143.284294     0.000000 
  19.540000  1131.000000     0.000884  1143.153675     0.000000 
  19.560000  1191.000000     0.000840  1143.023249     0.000000 
  19.580000  1182.000000     0.000846  1142.893016     0.000000 
  19.600000  1133.000000     0.000883  1142.762975     0.000000 
  19.620000  1158.000000     0.000864  1142.633127     0.000000 
  19.640000  1131.000000     0.000884  1142.503471     0.000000 
  19.660000  1157.000000     0.000864  1142.374006     0.000000 
  19.680000  1188.000000     0.000842  1142.244734     0.000000 
  19.700000  1190.000000     0.000840  1142.115653     0.000000 
  19.720000  1193.000000     0.000838  1141.986763     0.000000 
  19.740000  1157.000000     0.000864  1141.858064     0.000000 
  19.760000  1100.000000     0.000909  1141.729556     0.000000 
  19.780000  1154.000000     0.000867  1141.601239     0.000000 
  19.800000  1151.000000     0.000869  1141.473112     0.000000 
  19.820000  1155.000000     0.000866  1141.345175     0.000000 
  19.840000  1162.000000     0.000861  1141.217428     0.000000 
  19.860000  1186.000000     0.000843  1141.089871     0.000000 
  19.880000  1118.000000     0.000894  1140.962504     0.000000 
  19.900000  1190.000000     0.000840  1140.835325     0.000000 
  19.920000  1157.000000     0.000864  1140.708336     0.000000 
  19.940000  1136.000000     0.000880  1140.581536     0.000000 
  19.960000  1153.000000     0.000867  1140.454924     0.000000 
  19.980000  1122.000000     0.000891  1140.328501     0.000000 
  20.000000  1110.000000     0.000901  1140.202266     0.000000 
  20.020000  1121.000000     0.000892  1140.076218     0.000000 
  20.040000  1161.000000     0.000861  1139.950359     0.000000 
  20.060000  1142.000000     0.000876  1139.824687     0.000000 
  20.080000  1100.000000     0.000909  1139.699203     0.000000 
  20.100000  1152.000000     0.000868  1139.573905     0.000000 
  20.120000  1180.000000     0.000847  1139.448795     0.000000 
  20.140000  1136.000000     0.000880  1139.323871     0.000000 
  20.160000  1149.000000     0.000870  1139.199134     0.000000 
  20.180000  1142.000000     0.000876  1139.074583     0.000000 
  20.200000  1134.000000     0.000882  1138.950218     0.000000 
  20.220000  1156.000000     0.000865  1138.826039     0.000000 
  20.240000  1148.000000     0.000871  1138.702045     0.000000 
  20.260000  1128.000000     0.000887  1138.578237     0.000000 
  20.280000  1125.000000     0.000889  1138.454614     0.000000 
  20.300000  1089.000000     0.000918  1138.331176     0.000000 
  20.320000  1111.000000     0.000900  1138.207923     0.000000 
  20.340000  1153.000000     0.000867  1138.084854     0.000000 
  20.360000  1120.000000     0.000893  1137.961969     0.000000 
  20.380000  1125.000000     0.000889  1137.839269     0.000000 
  20.400000  1140.000000     0.000877  1137.716753     0.000000 
  20.420000  1086.000000     0.000921  1137.594420     0.000000 
  20.440000  1094.000000     0.000914  1137.472271     0.000000 
  20.460000  1135.000000     0.000881  1137.350304     0.000000 
  20.480000  1124.000000     0.000890  1137.228522     0.000000 
  20.500000  1133.000000     0.000883  1137.106921     0.000000 
  20.520000  1157.000000     0.000864  1136.985504     0.000000 
  20.540000  1110.000000     0.000901  1136.864269     0.000000 
  20.560000  1169.000000     0.000855  1136.743216     0.000000 
  20.580000  1168.000000     0.000856  1136.622345     0.000000 
  20.600000  1154.000000     0.000867  1136.501655     0.000000 
  20.620000  1184.000000     0.000845  1136.381148     0.000000 
  20.640000  1166.000000     0.000858  1136.260821     0.000000 
  20.660000  1159.000000     0.000863  1136.140676     0.000000 
  20.680000  1163.000000     0.000860  1136.020712     0.000000 
  20.700000  1175.000000     0.000851  1135.900928     0.000000 
  20.720000  1161.000000     0.000861  1135.781325     0.000000 
  20.740000  1215.000000     0.000823  1135.661902     0.000000 
  20.760000  1283.000000     0.000779  1135.542659     0.000000 
  20.780000  1199.000000     0.000834  1135.423596     0.000000 
  20.800000  1161.000000     0.000861  1135.304713     0.000000 
  20.820000  1116.000000     0.000896  1135.186009     0.000000 
  20.840000  1103.000000     0.000907  1135.067485     0.000000 
  20.860000  1103.000000     0.000907  1134.949139     0.000000 
  20.880000  1126.000000     0.000888  1134.830972     0.000000 
  20.900000  1123.000000     0.000890  1134.712984     0.000000 
  20.920000  1118.000000     0.000894  1134.595174     0.000000 
  20.940000  1075.000000     0.000930  1134.477542     0.000000 
  20.960000  1065.000000     0.000939  1134.360089     0.000000 
  20.980000  1073.000000     0.000932  1134.242813     0.000000 
  21.000000  1164.000000     0.000859  1134.125714     0.000000 
  21.020000  1111.000000     0.000900  1134.008793     0.000000 
  21.040000  1077.000000     0.000929  1133.892049     0.000000 
  21.060000  1044.000000     0.000958  1133.775482     0.000000 
  21.080000  1143.000000     0.000875  1133.659092     0.000000 
  21.100000  1111.000000     0.000900  1133.542878     0.000000 
  21.120000  1100.000000     0.000909  1133.426840     0.000000 
  21.140000  1100.000000     0.000909  1133.310979     0.000000 
  21.160000  1110.000000     0.000901  1133.195293     0.000000 
  21.180000  1116.000000     0.000896  1133.079783     0.000000 
  21.200000  1150.000000     0.000870  1132.964449     0.000000 
  21.220000  1108.000000     0.000903  1132.849289     0.000000 
  21.240000  1106.000000     0.000904  1132.734305     0.000000 
  21.260000  1082.000000     0.000924  1132.619496     0.000000 
  21.280000  1077.000000     0.000929  1132.504861     0.000000 
  21.300000  1082.000000     0.000924  1132.390401     0.000000 
  21.320000  1062.000000     0.000942  1132.276115     0.000000 
  21.340000  1070.000000     0.000935  1132.162002     0.000000 
  21.360000  1095.000000     0.000913  1132.048064     0.000000 
  21.380000  1122.000000     0.000891  1131.934299     0.000000 
  21.400000  1124.000000     0.000890  1131.820708     0.000000 
  21.420000  1119.000000     0.000894  1131.707290     0.000000 
  21.440000  1116.000000     0.000896  1131.594044     0.000000 
  21.460000  1126.000000     0.000888  1131.480972     0.000000 
  21.480000  1125.000000     0.000889  1131.368072     0.000000 
  21.500000  1096.000000     0.000912  1131.255345     0.000000 
  21.520000  1093.000000     0.000915  1131.142789     0.000000 
  21.540000  1096.000000     0.000912  1131.030406     0.000000 
  21.560000  1095.000000     0.000913  1130.918194     0.000000 
  21.580000  1106.000000     0.000904  1130.806154     0.000000 
  21.600000  1131.000000     0.000884  1130.694285     0.000000 
  21.620000  1128.000000     0.000887  1130.582587     0.000000 
  21.640000  1144.000000     0.000874  1130.471060     0.000000 
  21.660000  1111.000000     0.000900  1130.359704     0.000000 
  21.680000  1128.000000     0.000887  1130.248519     0.000000 
  21.700000  1125.000000     0.000889  1130.137503     0.000000 
  21.720000  1117.000000     0.000895  1130.026658     0.000000 
  21.740000  1135.000000     0.000881  1129.915983     0.000000 
  21.760000  1141.000000     0.000876  1129.805477     0.000000 
  21.780000  1137.000000     0.000880  1129.695141     0.000000 
  21.800000  1112.000000     0.000899  1129.584974     0.000000 
  21.820000  1121.000000     0.000892  1129.474976     0.000000 
  21.840000  1088.000000     0.000919  1129.365147     0.000000 
  21.860000  1100.000000     0.000909  1129.255487     0.000000 
  21.880000  1102.000000     0.000907  1129.145995     0.000000 
  21.900000  1102.000000     0.000907  1129.036672     0.000000 
  21.920000  1122.000000     0.000891  1128.927517     0.000000 
  21.940000  1101.000000     0.000908  1128.818529     0.000000 
  21.960000  1107.000000     0.000903  1128.709709     0.000000 
  21.980000  1102.000000     0.000907  1128.601057     0.000000 
  22.000000  1077.000000     0.000929  1128.492571     0.000000 
  22.020000  1074.000000     0.000931  1128.384253     0.000000 
  22.040000  1113.000000     0.000898  1128.276102     0.000000 
  22.060000  1106.000000     0.000904  1128.168117     0.000000 
  22.080000  1086.000000     0.000921  1128.060299     0.000000 
  22.100000  1063.000000     0.000941  1127.952647     0.000000 
  22.120000  1072.000000     0.000933  1127.845161     0.000000 
  22.140000  1075.000000     0.000930  1127.737841     0.000000 
  22.160000  1112.000000     0.000899  1127.630687     0.000000 
  22.180000  1094.000000     0.000914  1127.523698     0.000000 
  22.200000  1085.000000     0.000922  1127.416874     0.000000 
  22.220000  1113.000000     0.000898  1127.310216     0.000000 
  22.240000  1071.000000     0.000934  1127.203722     0.000000 
  22.260000  1057.000000     0.000946  1127.097393     0.000000 
  22.280000  1065.000000     0.000939  1126.991228     0.000000 
  22.300000  1076.000000     0.000929  1126.885228     0.000000 
  22.320000  1128.000000     0.000887  1126.779391     0.000000 
  22.340000  1129.000000     0.000886  1126.673719     0.000000 
  22.360000  1058.000000     0.000945  1126.568210     0.000000 
  22.380000  1118.000000     0.000894  1126.462864     0.000000 
  22.400000  1155.000000     0.000866  1126.357682     0.000000 
  22.420000  1117.000000     0.000895  1126.252663     0.000000 
  22.440000  1121.000000     0.000892  1126.147806     0.000000 
  22.460000  1096.000000     0.000912  1126.043113     0.000000 
  22.480000  1091.000000     0.000917  1125.938581     0.000000 
  22.500000  1108.000000     0.000903  1125.834212     0.000000 
  22.520000  1103.000000     0.000907  1125.730006     0.000000 
  22.540000  1112.000000     0.000899  1125.625960     0.000000 
  22.560000  1075.000000     0.000930  1125.522077     0.000000 
  22.580000  1106.000000     0.000904  1125.418355     0.000000 
  22.600000  1063.000000     0.000941  1125.314794     0.000000 
  22.620000  1090.000000     0.000917  1125.211395     0.000000 
  22.640000  1133.000000     0.000883  1125.108156     0.000000 
  22.660000  1157.000000     0.000864  1125.005078     0.000000 
  22.680000  1076.000000     0.000929  1124.902160     0.000000 
  22.700000  1107.000000     0.000903  1124.799403     0.000000 
  22.720000  1094.000000     0.000914  1124.696806     0.000000 
  22.740000  1104.000000     0.000906  1124.594368     0.000000 
  22.760000  1150.000000     0.000870  1124.492091     0.000000 
  22.780000  1125.000000     0.000889  1124.389973     0.000000 
  22.800000  1063.000000     0.000941  1124.288014     0.000000 
  22.820000  1091.000000     0.000917  1124.186214     0.000000 
  22.840000  1103.000000     0.000907  1124.084573     0.000000 
  22.860000  1096.000000     0.000912  1123.983091     0.000000 
  22.880000  1071.000000     0.000934  1123.881767     0.000000 
  22.900000  1069.000000     0.000935  1123.780602     0.000000 
  22.920000  1136.000000     0.000880  1123.679595     0.000000 
  22.940000  1089.000000     0.000918  1123.578745     0.000000 
  22.960000  1107.000000     0.000903  1123.478054     0.000000 
  22.980000  1102.000000     0.000907  1123.377520     0.000000 
  23.000000  1086.000000     0.000921  1123.277143     0.000000 
  23.020000  1127.000000     0.000887  1123.176923     0.000000 
  23.040000  1096.000000     0.000912  1123.076861     0.000000 
  23.060000  1088.000000     0.000919  1122.976955     0.000000 
  23.080000  1088.000000     0.000919  1122.877206     0.000000 
  23.100000  1112.000000     0.000899  1122.777613     0.000000 
  23.120000  1130.000000     0.000885  1122.678176     0.000000 
  23.140000  1102.000000     0.000907  1122.578896     0.000000 
  23.160000  1085.000000     0.000922  1122.479771     0.000000 
  23.180000  1088.000000     0.000919  1122.380801     0.000000 
  23.200000  1094.000000     0.000914  1122.281987     0.000000 
  23.220000  1084.000000     0.000923  1122.183329     0.000000 
  23.240000  1053.000000     0.000950  1122.084825     0.000000 
  23.260000  1057.000000     0.000946  1121.986476     0.000000 
  23.280000  1072.000000     0.000933  1121.888282     0.000000 
  23.300000  1058.000000     0.000945  1121.790242     0.000000 
  23.320000  1074.000000     0.000931  1121.692356     0.000000 
  23.340000  1096.000000     0.000912  1121.594625     0.000000 
  23.360000  1111.000000     0.000900  1121.497047     0.000000 
  23.380000  1081.000000     0.000925  1121.399623     0.000000 
  23.400000  1095.000000     0.000913  1121.302353     0.000000 
  23.420000  1113.000000     0.000898  1121.205236     0.000000 
  23.440000  1099.000000     0.000910  1121.108272     0.000000 
  23.460000  1090.000000     0.000917  1121.011460     0.000000 
  23.480000  1068.000000     0.000936  1120.914802     0.000000 
  23.500000  1122.000000     0.000891  1120.818296     0.000000 
  23.520000  1113.000000     0.000898  1122.082338     0.000000 
  23.540000  1112.000000     0.000899  1122.082644     0.000000 
  23.560000  1084.000000     0.000923  1122.093742     0.000000 
  23.580000  1084.000000     0.000923  1122.117256     0.000000 
  23.600000  1090.000000     0.000917  1122.155128     0.000000 
  23.620000  1092.000000     0.000916  1122.209705     0.000000 
  23.640000  1169.000000     0.000855  1122.283834     0.000000 
  23.660000  1099.000000     0.000910  1122.381006     0.000000 
  23.680000  1077.000000     0.000929  1122.505529     0.000000 
  23.700000  1059.000000     0.000944  1122.662778     0.000000 
  23.720000  1098.000000     0.000911  1122.859517     0.000000 
  23.740000  1165.000000     0.000858  1123.815389     0.000000 
  23.760000  1133.000000     0.000883  1124.802654     0.000000 
  23.780000  1118.000000     0.000894  1125.325231     0.000000 
  23.800000  1114.000000     0.000898  1125.964560     0.000000 
  23.820000  1099.000000     0.000910  1126.752120     0.000000 
  23.840000  1200.000000     0.000833  1127.730819     0.000000 
  23.860000  1180.000000     0.000847  1128.960389     0.000000 
  23.880000  1199.000000     0.000834  1130.525991     0.000000 
  23.900000  1208.000000     0.000828  1132.552465     0.000000 
  23.920000  1302.000000     0.000768  1135.228863     0.000000 
  23.940000  1274.000000     0.000785  1138.852740     0.000000 
  23.960000  1368.000000     0.000731  1143.914723     0.000000 
  23.980000  1542.000000     0.000649  1151.271246     0.000000 
  24.000000  1715.000000     0.000583  1162.527966     0.000000 
  24.020000  1981.000000     0.000505  1180.986963     0.000000 
  24.040000  2429.000000     0.000412  1214.787936     0.000000 
  24.060000  2783.000000     0.000359  1305.545514     0.000000 
  24.080000  3554.000000     0.000281  1750.479304     0.000000 
  24.100000  4162.000000     0.000240  3094.399900     0.000000 
  24.120000  3791.000000     0.000264  3529.421466     0.000000 
  24.140000  2947.000000     0.000339  2301.242520     0.000000 
  24.160000  2536.000000     0.000394  2281.409616     0.000000 
  24.180000  2220.000000     0.000450  2406.133734     0.000000 
  24.200000  1609.000000     0.000622  1655.334320     0.000000 
  24.220000  1256.000000     0.000796  1280.661423     0.000000 
  24.240000  1183.000000     0.000845  1196.746337     0.000000 
  24.260000  1174.000000     0.000852  1169.323536     0.000000 
  24.280000  1166.000000     0.000858  1154.459316     0.000000 
  24.300000  1155.000000     0.000866  1145.204969     0.000000 
  24.320000  1128.000000     0.000887  1139.009049     0.000000 
  24.340000  1141.000000     0.000876  1134.633192     0.000000 
  24.360000  1124.000000     0.000890  1131.412416     0.000000 
  24.380000  1095.000000     0.000913  1128.962163     0.000000 
  24.400000  1109.000000     0.000902  1127.046735     0.000000 
  24.420000  1107.000000     0.000903  1125.514757     0.000000 
  24.440000  1112.000000     0.000899  1124.265211     0.000000 
  24.460000  1093.000000     0.000915  1123.228491     0.000000 
  24.480000  1102.000000     0.000907  1122.355309     0.000000 
  24.500000  1099.000000     0.000910  1121.609943     0.000000 
  24.520000  1068.000000     0.000936  1120.965968     0.000000 
  24.540000  1127.000000     0.000887  1120.403490     0.000000 
  24.560000  1137.000000     0.000880  1119.907287     0.000000 
  24.580000  1119.000000     0.000894  1119.465554     0.000000 
  24.600000  1061.000000     0.000943  1119.069012     0.000000 
  24.620000  1093.000000     0.000915  1117.510296     0.000000 
  24.640000  1040.000000     0.000962  1117.284024     0.000000 
  24.660000  1072.000000     0.000933  1117.072734     0.000000 
  24.680000  1112.000000     0.000899  1116.874375     0.000000 
  24.700000  1117.000000     0.000895  1116.687239     0.000000 
  24.720000  1086.000000     0.000921  1116.509893     0.000000 
  24.740000  1084.000000     0.000923  1115.124942     0.000000 
  24.760000  1080.000000     0.000926  1115.037666     0.000000 
  24.780000  1084.000000     0.000923  1114.950531     0.000000 
  24.800000  1088.000000     0.000919  1114.863536     0.000000 
  24.820000  1098.000000     0.000911  1114.776681     0.000000 
  24.840000  1095.000000     0.000913  1114.689967     0.000000 
  24.860000  1039.000000     0.000962  1114.603392     0.000000 
  24.880000  1066.000000     0.000938  1114.516957     0.000000 
  24.900000  1063.000000     0.000941  1114.430661     0.000000 
  24.920000  1051.000000     0.000951  1114.344505     0.000000 
  24.940000  1061.000000     0.000943  1114.258488     0.000000 
  24.960000  1068.000000     0.000936  1114.172610     0.000000 
  24.980000  1065.000000     0.000939  1114.086871     0.000000 
  25.000000  1079.000000     0.000927  1114.001270     0.000000 
  25.020000  1068.000000     0.000936  1113.915808     0.000000 
  25.040000  1039.000000     0.000962  1113.830484     0.000000 
  25.060000  1049.000000     0.000953  1113.745298     0.000000 
  25.080000  1093.000000     0.000915  1113.660250     0.000000 
  25.100000  1108.000000     0.000903  1113.575339     0.000000 
  25.120000  1115.000000     0.000897  1113.490566     0.000000 
  25.140000  1091.000000     0.000917  1113.405931     0.000000 
  25.160000  1094.000000     0.000914  1113.321433     0.000000 
  25.180000  1084.000000     0.000923  1113.237071     0.000000 
  25.200000  1106.000000     0.000904  1113.152847     0.000000 
  25.220000  1107.000000     0.000903  1113.068759     0.000000 
  25.240000  1070.000000     0.000935  1112.984807     0.000000 
  25.260000  1078.000000     0.000928  1112.900992     0.000000 
  25.280000  1079.000000     0.000927  1112.817313     0.000000 
  25.300000  1050.000000     0.000952  1112.733770     0.000000 
  25.320000  1082.000000     0.000924  1112.650362     0.000000 
  25.340000  1076.000000     0.000929  1112.567090     0.000000 
  25.360000  1084.000000     0.000923  1112.483954     0.000000 
  25.380000  1083.000000     0.000923  1112.400952     0.000000 
  25.400000  1080.000000     0.000926  1112.318086     0.000000 
  25.420000  1088.000000     0.000919  1112.235355     0.000000 
  25.440000  1122.000000     0.000891  1112.152758     0.000000 
  25.460000  1122.000000     0.000891  1112.070296     0.000000 
  25.480000  1082.000000     0.000924  1111.987968     0.000000 
  25.500000  1075.000000     0.000930  1111.905774     0.000000 
  25.520000  1051.000000     0.000951  1111.823714     0.000000 
  25.540000  1092.000000     0.000916  1111.741788     0.000000 
  25.560000  1070.000000     0.000935  1111.659995     0.000000 
  25.580000  1022.000000     0.000978  1111.578336     0.000000 
  25.600000  1029.000000     0.000972  1111.496811     0.000000 
  25.620000  1046.000000     0.000956  1111.415418     0.000000 
  25.640000  1101.000000     0.000908  1111.334158     0.000000 
  25.660000  1029.000000     0.000972  1111.253031     0.000000 
  25.680000  1046.000000     0.000956  1111.172037     0.000000 
  25.700000  1058.000000     0.000945  1111.091174     0.000000 
  25.720000  1072.000000     0.000933  1111.010445     0.000000 
  25.740000  1041.000000     0.000961  1110.929847     0.000000 
  25.760000  1052.000000     0.000951  1110.849381     0.000000 
  25.780000  1065.000000     0.000939  1110.769046     0.000000 
  25.800000  1046.000000     0.000956  1110.688843     0.000000 
  25.820000  1078.000000     0.000928  1110.608772     0.000000 
  25.840000  1059.000000     0.000944  1110.528831     0.000000 
  25.860000  1114.000000     0.000898  1110.449022     0.000000 
  25.880000  1058.000000     0.000945  1110.369344     0.000000 
  25.900000  1085.000000     0.000922  1110.289796     0.000000 
  25.920000  1036.000000     0.000965  1110.210378     0.000000 
  25.940000  1105.000000     0.000905  1110.131091     0.000000 
  25.960000  1169.000000     0.000855  1110.051934     0.000000 
  25.980000  1149.000000     0.000870  1109.972907     0.000000 
  26.000000  1061.000000     0.000943  1109.894009     0.000000 
  26.020000  1058.000000     0.000945  1109.815241     0.000000 
  26.040000  1039.000000     0.000962  1109.736603     0.000000 
  26.060000  1092.000000     0.000916  1109.658094     0.000000 
  26.080000  1114.000000     0.000898  1109.579714     0.000000 
  26.100000  1105.000000     0.000905  1109.501463     0.000000 
  26.120000  1093.000000     0.000915  1109.423340     0.000000 
  26.140000  1051.000000     0.000951  1109.345346     0.000000 
  26.160000  1048.000000     0.000954  1109.267481     0.000000 
  26.180000  1061.000000     0.000943  1109.189744     0.000000 
  26.200000  1036.000000     0.000965  1109.112134     0.000000 
  26.220000  1050.000000     0.000952  1109.034653     0.000000 
  26.240000  1064.000000     0.000940  1108.957299     0.000000 
  26.260000  1098.000000     0.000911  1108.880073     0.000000 
  26.280000  1085.000000     0.000922  1108.802974     0.000000 
  26.300000  1100.000000     0.000909  1108.726003     0.000000 
  26.320000  1057.000000     0.000946  1108.649158     0.000000 
  26.340000  1051.000000     0.000951  1108.572440     0.000000 
  26.360000  1062.000000     0.000942  1108.495849     0.000000 
  26.380000  1083.000000     0.000923  1108.419385     0.000000 
  26.400000  1082.000000     0.000924  1108.343046     0.000000 
  26.420000  1044.000000     0.000958  1108.266834     0.000000 
  26.440000  1073.000000     0.000932  1108.190748     0.000000 
  26.460000  1062.000000     0.000942  1108.114788     0.000000 
  26.480000  1075.000000     0.000930  1108.038953     0.000000 
  26.500000  1090.000000     0.000917  1107.963244     0.000000 
  26.520000  1066.000000     0.000938  1107.887660     0.000000 
  26.540000  1078.000000     0.000928  1107.812201     0.000000 
  26.560000  1056.000000     0.000947  1107.736868     0.000000 
  26.580000  1067.000000     0.000937  1107.661659     0.000000 
  26.600000  1059.000000     0.000944  1107.586574     0.000000 
  26.620000  1067.000000     0.000937  1107.511614     0.000000 
  26.640000  1078.000000     0.000928  1107.436779     0.000000 
  26.660000  1046.000000     0.000956  1107.362067     0.000000 
  26.680000  1091.000000     0.000917  1107.287480     0.000000 
  26.700000  1110.000000     0.000901  1107.213016     0.000000 
  26.720000  1086.000000     0.000921  1107.138676     0.000000 
  26.740000  1042.000000     0.000960  1107.064459     0.000000 
  26.760000  1053.000000     0.000950  1106.990366     0.000000 
  26.780000  1010.000000     0.000990  1106.916395     0.000000 
  26.800000  1034.000000     0.000967  1106.842548     0.000000 
  26.820000  1041.000000     0.000961  1106.768823     0.000000 
  26.840000  1101.000000     0.000908  1106.695221     0.000000 
  26.860000  1089.000000     0.000918  1106.621742     0.000000 
  26.880000  1107.000000     0.000903  1106.548385     0.000000 
  26.900000  1073.000000     0.000932  1106.475150     0.000000 
  26.920000  1089.000000     0.000918  1106.402036     0.000000 
  26.940000  1062.000000     0.000942  1106.329045     0.000000 
  26.960000  1055.000000     0.000948  1106.256175     0.000000 
  26.980000  1099.000000     0.000910  1106.183427     0.000000 
  27.000000  1093.000000     0.000915  1106.110800     0.000000 
  27.020000  1044.000000     0.000958  1106.038294     0.000000 
  27.040000  1043.000000     0.000959  1105.965909     0.000000 
  27.060000  1076.000000     0.000929  1105.893644     0.000000 
  27.080000  1054.000000     0.000949  1105.821501     0.000000 
  27.100000  1093.000000     0.000915  1105.749477     0.000000 
  27.120000  1115.000000     0.000897  1105.677574     0.000000 
  27.140000  1088.000000     0.000919  1105.605791     0.000000 
  27.160000  1063.000000     0.000941  1105.534129     0.000000 
  27.180000  1054.000000     0.000949  1105.462585     0.000000 
  27.200000  1070.000000     0.000935  1105.391162     0.000000 
  27.220000  1057.000000     0.000946  1105.319858     0.000000 
  27.240000  1056.000000     0.000947  1105.248673     0.000000 
  27.260000  1101.000000     0.000908  1105.177607     0.000000 
  27.280000  1115.000000     0.000897  1105.106661     0.000000 
  27.300000  1064.000000     0.000940  1105.035833     0.000000 
  27.320000  1058.000000     0.000945  1104.965124     0.000000 
  27.340000  1052.000000     0.000951  1104.894533     0.000000 
  27.360000  1038.000000     0.000963  1104.824060     0.000000 
  27.380000  1035.000000     0.000966  1104.753706     0.000000 
  27.400000  1041.000000     0.000961  1104.683469     0.000000 
  27.420000  1081.000000     0.000925  1104.613351     0.000000 
  27.440000  1057.000000     0.000946  1104.543350     0.000000 
  27.460000  1075.000000     0.000930  1104.473466     0.000000 
  27.480000  1049.000000     0.000953  1104.403700     0.000000 
  27.500000  1026.000000     0.000975  1104.334051     0.000000 
  27.520000  1029.000000     0.000972  1104.264519     0.000000 
  27.540000  1043.000000     0.000959  1104.195104     0.000000 
  27.560000  1095.000000     0.000913  1104.125806     0.000000 
  27.580000  1112.000000     0.000899  1104.056624     0.000000 
  27.600000  1053.000000     0.000950  1103.987558     0.000000 
  27.620000  1121.000000     0.000892  1103.918608     0.000000 
  27.640000  1077.000000     0.000929  1103.849775     0.000000 
  27.660000  1050.000000     0.000952  1103.781057     0.000000 
  27.680000  1059.000000     0.000944  1103.712455     0.000000 
  27.700000  1079.000000     0.000927  1103.643969     0.000000 
  27.720000  1057.000000     0.000946  1103.575598     0.000000 
  27.740000  1117.000000     0.000895  1103.507342     0.000000 
  27.760000  1068.000000     0.000936  1103.439201     0.000000 
  27.780000  1075.000000     0.000930  1103.371176     0.000000 
  27.800000  1133.000000     0.000883  1103.303264     0.000000 
  27.820000  1092.000000     0.000916  1103.235468     0.000000 
  27.840000  1085.000000     0.000922  1103.167786     0.000000 
  27.860000  1071.000000     0.000934  1103.100218     0.000000 
  27.880000  1092.000000     0.000916  1103.032764     0.000000 
  27.900000  1045.000000     0.000957  1102.965424     0.000000 
  27.920000  1078.000000     0.000928  1102.898198     0.000000 
  27.940000  1029.000000     0.000972  1102.831085     0.000000 
  27.960000  1040.000000     0.000962  1102.764086     0.000000 
  27.980000  1044.000000     0.000958  1102.697200     0.000000 
  28.000000  1064.000000     0.000940  1102.630427     0.000000 
  28.020000  1053.000000     0.000950  1102.563768     0.000000 
  28.040000  1060.000000     0.000943  1102.497221     0.000000 
  28.060000  1071.000000     0.000934  1102.430786     0.000000 
  28.080000  1088.000000     0.000919  1102.364465     0.000000 
  28.100000  1120.000000     0.000893  1102.298255     0.000000 
  28.120000  1081.000000     0.000925  1102.232158     0.000000 
  28.140000  1026.000000     0.000975  1102.166172     0.000000 
  28.160000  1051.000000     0.000951  1102.100299     0.000000 
  28.180000  1064.000000     0.000940  1102.034537     0.000000 
  28.200000  1088.000000     0.000919  1101.968887     0.000000 
  28.220000  1068.000000     0.000936  1101.903348     0.000000 
  28.240000  1055.000000     0.000948  1101.837920     0.000000 
  28.260000  1054.000000     0.000949  1101.772604     0.000000 
  28.280000  1065.000000     0.000939  1101.707398     0.000000 
  28.300000  1064.000000     0.000940  1101.642303     0.000000 
  28.320000  1069.000000     0.000935  1101.577318     0.000000 
  28.340000  1092.000000     0.000916  1101.512444     0.000000 
  28.360000  1098.000000     0.000911  1101.447681     0.000000 
  28.380000  1086.000000     0.000921  1101.383027     0.000000 
  28.400000  1064.000000     0.000940  1101.318484     0.000000 
  28.420000  1066.000000     0.000938  1101.254050     0.000000 
  28.440000  1080.000000     0.000926  1101.189725     0.000000 
  28.460000  1072.000000     0.000933  1101.125511     0.000000 
  28.480000  1079.000000     0.000927  1101.061405     0.000000 
  28.500000  1065.000000     0.000939  1100.997409     0.000000 
  28.520000  1074.000000     0.000931  1100.933522     0.000000 
  28.540000  1084.000000     0.000923  1100.869744     0.000000 
  28.560000  1081.000000     0.000925  1100.806074     0.000000 
  28.580000  1050.000000     0.000952  1100.742513     0.000000 
  28.600000  1062.000000     0.000942  1100.679060     0.000000 
  28.620000  1074.000000     0.000931  1100.615716     0.000000 
  28.640000  1105.000000     0.000905  1100.552479     0.000000 
  28.660000  1142.000000     0.000876  1100.489351     0.000000 
  28.680000  1107.000000     0.000903  1100.426330     0.000000 
  28.700000  1068.000000     0.000936  1100.363417     0.000000 
  28.720000  1038.000000     0.000963  1100.300611     0.000000 
  28.740000  1060.000000     0.000943  1100.237913     0.000000 
  28.760000  1047.000000     0.000955  1100.175322     0.000000 
  28.780000  1058.000000     0.000945  1100.112838     0.000000 
  28.800000  1059.000000     0.000944  1100.050461     0.000000 
  28.820000  1086.000000     0.000921  1099.988190     0.000000 
  28.840000  1081.000000     0.000925  1099.926026     0.000000 
  28.860000  1019.000000     0.000981  1099.863968     0.000000 
  28.880000  1045.000000     0.000957  1099.802017     0.000000 
  28.900000  1056.000000     0.000947  1099.740171     0.000000 
  28.920000  1007.000000     0.000993  1099.678432     0.000000 
  28.940000  1064.000000     0.000940  1099.616798     0.000000 
  28.960000  1078.000000     0.000928  1099.555270     0.000000 
  28.980000  1075.000000     0.000930  1099.493847     0.000000 
  29.000000  1062.000000     0.000942  1099.432530     0.000000 
  29.020000  1067.000000     0.000937  1099.371317     0.000000 
  29.040000  1021.000000     0.000979  1099.310210     0.000000 
  29.060000  1079.000000     0.000927  1099.249208     0.000000 
  29.080000  1124.000000     0.000890  1099.188310     0.000000 
  29.100000  1061.000000     0.000943  1099.127517     0.000000 
  29.120000  1054.000000     0.000949  1099.066828     0.000000 
  29.140000  1027.000000     0.000974  1099.006244     0.000000 
  29.160000  1050.000000     0.000952  1098.945763     0.000000 
  29.180000  1082.000000     0.000924  1098.885387     0.000000 
  29.200000  1058.000000     0.000945  1098.825114     0.000000 
  29.220000  1030.000000     0.000971  1098.764945     0.000000 
  29.240000  1035.000000     0.000966  1098.704879     0.000000 
  29.260000  1077.000000     0.000929  1098.644917     0.000000 
  29.280000  1113.000000     0.000898  1098.585058     0.000000 
  29.300000  1069.000000     0.000935  1098.525302     0.000000 
  29.320000  1062.000000     0.000942  1098.465649     0.000000 
  29.340000  1073.000000     0.000932  1098.406098     0.000000 
  29.360000  1063.000000     0.000941  1098.346650     0.000000 
  29.380000  1065.000000     0.000939  1098.287305     0.000000 
  29.400000  1082.000000     0.000924  1098.228061     0.000000 
  29.420000  1055.000000     0.000948  1098.168920     0.000000 
  29.440000  1052.000000     0.000951  1098.109881     0.000000 
  29.460000  1058.000000     0.000945  1098.050944     0.000000 
  29.480000  1016.000000     0.000984  1097.992108     0.000000 
  29.500000  1034.000000     0.000967  1097.933374     0.000000 
  29.520000  1071.000000     0.000934  1097.874741     0.000000 
  29.540000  1064.000000     0.000940  1097.816210     0.000000 
  29.560000  1042.000000     0.000960  1097.757779     0.000000 
  29.580000  1080.000000     0.000926  1097.699450     0.000000 
  29.600000  1056.000000     0.000947  1097.641221     0.000000 
  29.620000  1038.000000     0.000963  1097.583093     0.000000 
  29.640000  1018.000000     0.000982  1097.525065     0.000000 
  29.660000  1043.000000     0.000959  1097.467138     0.000000 
  29.680000  1087.000000     0.000920  1097.409310     0.000000 
  29.700000  1106.000000     0.000904  1097.351583     0.000000 
  29.720000  1028.000000     0.000973  1097.293956     0.000000 
  29.740000  1039.000000     0.000962  1097.236428     0.000000 
  29.760000  1020.000000     0.000980  1097.179000     0.000000 
  29.780000  1045.000000     0.000957  1097.121672     0.000000 
  29.800000  1071.000000     0.000934  1097.064443     0.000000 
  29.820000  1045.000000     0.000957  1097.007312     0.000000 
  29.840000  1073.000000     0.000932  1096.950281     0.000000 
  29.860000  1063.000000     0.000941  1096.893349     0.000000 
  29.880000  1066.000000     0.000938  1096.836515     0.000000 
  29.900000  1069.000000     0.000935  1096.779780     0.000000 
  29.920000  1074.000000     0.000931  1096.723144     0.000000 
  29.940000  1074.000000     0.000931  1096.666605     0.000000 
  29.960000  1108.000000     0.000903  1096.610165     0.000000 
  29.980000  1094.000000     0.000914  1096.553823     0.000000 
  30.000000  1088.000000     0.000919  1096.497578     0.000000 
  30.020000  1056.000000     0.000947  1096.441431     0.000000 
  30.040000  1048.000000     0.000954  1096.385382     0.000000 
  30.060000  1055.000000     0.000948  1096.329430     0.000000 
  30.080000  1050.000000     0.000952  1096.273576     0.000000 
  30.100000  1068.000000     0.000936  1096.217818     0.000000 
  30.120000  1068.000000     0.000936  1096.162157     0.000000 
  30.140000  1051.000000     0.000951  1096.106593     0.000000 
  30.160000  1050.000000     0.000952  1096.051126     0.000000 
  30.180000  1081.000000     0.000925  1095.995755     0.000000 
  30.200000  1077.000000     0.000929  1095.940481     0.000000 
  30.220000  1079.000000     0.000927  1095.885303     0.000000 
  30.240000  1088.000000     0.000919  1095.830221     0.000000 
  30.260000  1095.000000     0.000913  1095.775235     0.000000 
  30.280000  1059.000000     0.000944  1095.720344     0.000000 
  30.300000  1051.000000     0.000951  1095.665549     0.000000 
  30.320000  1076.000000     0.000929  1095.610850     0.000000 
  30.340000  1044.000000     0.000958  1095.556246     0.000000 
  30.360000  1019.000000     0.000981  1095.501737     0.000000 
  30.380000  1034.000000     0.000967  1095.447324     0.000000 
  30.400000  1039.000000     0.000962  1095.393005     0.000000 
  30.420000  1047.000000     0.000955  1095.338781     0.000000 
  30.440000  1036.000000     0.000965  1095.284652     0.000000 
  30.460000  1046.000000     0.000956  1095.230617     0.000000 
  30.480000  1068.000000     0.000936  1095.176676     0.000000 
  30.500000  1054.000000     0.000949  1095.122830     0.000000 
  30.520000  1020.000000     0.000980  1095.069077     0.000000 
  30.540000  1047.000000     0.000955  1095.015419     0.000000 
  30.560000  1106.000000     0.000904  1094.961854     0.000000 
  30.580000  1109.000000     0.000902  1094.908383     0.000000 
  30.600000  1033.000000     0.000968  1094.855006     0.000000 
  30.620000  1114.000000     0.000898  1094.801721     0.000000 
  30.640000  1087.000000     0.000920  1094.748530     0.000000 
  30.660000  1057.000000     0.000946  1094.695432     0.000000 
  30.680000  1068.000000     0.000936  1094.642427     0.000000 
  30.700000  1057.000000     0.000946  1094.589515     0.000000 
  30.720000  1049.000000     0.000953  1094.536695     0.000000 
  30.740000  1023.000000     0.000978  1094.483968     0.000000 
  30.760000  1098.000000     0.000911  1094.431333     0.000000 
  30.780000  1062.000000     0.000942  1094.378790     0.000000 
  30.800000  1035.000000     0.000966  1094.326340     0.000000 
  30.820000  1045.000000     0.000957  1094.273981     0.000000 
  30.840000  1075.000000     0.000930  1094.221714     0.000000 
  30.860000  1111.000000     0.000900  1094.169539     0.000000 
  30.880000  1119.000000     0.000894  1094.117455     0.000000 
  30.900000  1082.000000     0.000924  1094.065462     0.000000 
  30.920000  1073.000000     0.000932  1094.013561     0.000000 
  30.940000  1078.000000     0.000928  1093.961751     0.000000 
  30.960000  1085.000000     0.000922  1093.910032     0.000000 
  30.980000  1069.000000     0.000935  1093.858403     0.000000 
  31.000000  1079.000000     0.000927  1093.806865     0.000000 
  31.020000  1095.000000     0.000913  1094.899562     0.000000 
  31.040000  1083.000000     0.000923  1094.927893     0.000000 
  31.060000  1082.000000     0.000924  1094.964935     0.000000 
  31.080000  1078.000000     0.000928  1095.011977     0.000000 
  31.100000  1039.000000     0.000962  1095.070557     0.000000 
  31.120000  1054.000000     0.000949  1095.142526     0.000000 
  31.140000  1067.000000     0.000937  1095.230122     0.000000 
  31.160000  1081.000000     0.000925  1095.336077     0.000000 
  31.180000  1081.000000     0.000925  1095.463745     0.000000 
  31.200000  1077.000000     0.000929  1095.617294     0.000000 
  31.220000  1045.000000     0.000957  1095.801938     0.000000 
  31.240000  1055.000000     0.000948  1096.024282     0.000000 
  31.260000  1068.000000     0.000936  1096.292784     0.000000 
  31.280000  1077.000000     0.000929  1097.774415     0.000000 
  31.300000  1077.000000     0.000929  1098.288532     0.000000 
  31.320000  1077.000000     0.000929  1098.912189     0.000000 
  31.340000  1037.000000     0.000964  1099.675860     0.000000 
  31.360000  1068.000000     0.000936  1100.621487     0.000000 
  31.380000  1095.000000     0.000913  1101.808108     0.000000 
  31.400000  1094.000000     0.000914  1103.321014     0.000000 
  31.420000  1061.000000     0.000943  1105.287192     0.000000 
  31.440000  1108.000000     0.000903  1107.902564     0.000000 
  31.460000  1166.000000     0.000858  1111.482561     0.000000 
  31.480000  1185.000000     0.000844  1116.561978     0.000000 
  31.500000  1181.000000     0.000847  1124.107549     0.000000 
  31.520000  1245.000000     0.000803  1136.014459     0.000000 
  31.540000  1345.000000     0.000743  1156.426070     0.000000 
  31.560000  1648.000000     0.000607  1197.164756     0.000000 
  31.580000  1922.000000     0.000520  1325.818256     0.000000 
  31.600000  2299.000000     0.000435  1851.603679     0.000000 
  31.620000  2830.000000     0.000353  2755.821755     0.000000 
  31.640000  2416.000000     0.000414  2202.014265     0.000000 
  31.660000  1833.000000     0.000546  1525.871670     0.000000 
  31.680000  1697.000000     0.000589  1565.037593     0.000000 
  31.700000  1904.000000     0.000525  1966.757854     0.000000 
  31.720000  1710.000000     0.000585  1687.286830     0.000000 
  31.740000  1255.000000     0.000797  1294.293071     0.000000 
  31.760000  1248.000000     0.000801  1175.412635     0.000000 
  31.780000  1076.000000     0.000929  1142.292601     0.000000 
  31.800000  1094.000000     0.000914  1126.666526     0.000000 
  31.820000  1110.000000     0.000901  1117.485138     0.000000 
  31.840000  1081.000000     0.000925  1111.567316     0.000000 
  31.860000  1089.000000     0.000918  1107.500750     0.000000 
  31.880000  1110.000000     0.000901  1104.569035     0.000000 
  31.900000  1083.000000     0.000923  1102.375183     0.000000 
  31.920000  1080.000000     0.000926  1100.683669     0.000000 
  31.940000  1110.000000     0.000901  1099.347000     0.000000 
  31.960000  1087.000000     0.000920  1098.268678     0.000000 
  31.980000  1083.000000     0.000923  1097.383250     0.000000 
  32.000000  1048.000000     0.000954  1096.644954     0.000000 
  32.020000  1061.000000     0.000943  1096.020962     0.000000 
  32.040000  1075.000000     0.000930  1095.487199     0.000000 
  32.060000  1112.000000     0.000899  1095.025660     0.000000 
  32.080000  1094.000000     0.000914  1094.622656     0.000000 
  32.100000  1084.000000     0.000923  1094.267618     0.000000 
  32.120000  1098.000000     0.000911  1093.952276     0.000000 
  32.140000  1079.000000     0.000927  1093.670083     0.000000 
  32.160000  1070.000000     0.000935  1092.414190     0.000000 
  32.180000  1090.000000     0.000917  1092.265845     0.000000 
  32.200000  1087.000000     0.000920  1092.127983     0.000000 
  32.220000  1080.000000     0.000926  1091.999237     0.000000 
  32.240000  1101.000000     0.000908  1091.878454     0.000000 
  32.260000  1088.000000     0.000919  1090.736693     0.000000 
  32.280000  1046.000000     0.000956  1090.690671     0.000000 
  32.300000  1027.000000     0.000974  1090.644730     0.000000 
  32.320000  1096.000000     0.000912  1090.598872     0.000000 
  32.340000  1098.000000     0.000911  1090.553094     0.000000 
  32.360000  1096.000000     0.000912  1090.507398     0.000000 
  32.380000  1018.000000     0.000982  1090.461784     0.000000 
  32.400000  1041.000000     0.000961  1090.416250     0.000000 
  32.420000  1056.000000     0.000947  1090.370798     0.000000 
  32.440000  1080.000000     0.000926  1090.325426     0.000000 
  32.460000  1071.000000     0.000934  1090.280136     0.000000 
  32.480000  1048.000000     0.000954  1090.234925     0.000000 
  32.500000  1061.000000     0.000943  1090.189796     0.000000 
  32.520000  1064.000000     0.000940  1090.144746     0.000000 
  32.540000  1056.000000     0.000947  1090.099777     0.000000 
  32.560000  1100.000000     0.000909  1090.054888     0.000000 
  32.580000  1096.000000     0.000912  1090.010079     0.000000 
  32.600000  1034.000000     0.000967  1089.965350     0.000000 
  32.620000  1026.000000     0.000975  1089.920700     0.000000 
  32.640000  1043.000000     0.000959  1089.876130     0.000000 
  32.660000  1052.000000     0.000951  1089.831640     0.000000 
  32.680000  1058.000000     0.000945  1089.787229     0.000000 
  32.700000  1085.000000     0.000922  1089.742896     0.000000 
  32.720000  1106.000000     0.000904  1089.698644     0.000000 
  32.740000  1069.000000     0.000935  1089.654469     0.000000 
  32.760000  1065.000000     0.000939  1089.610374     0.000000 
  32.780000  1011.000000     0.000989  1089.566358     0.000000 
  32.800000  1072.000000     0.000933  1089.522420     0.000000 
  32.820000  1099.000000     0.000910  1089.478560     0.000000 
  32.840000  1098.000000     0.000911  1089.434779     0.000000 
  32.860000  1095.000000     0.000913  1089.391076     0.000000 
  32.880000  1060.000000     0.000943  1089.347450     0.000000 
  32.900000  1060.000000     0.000943  1089.303903     0.000000 
  32.920000  1067.000000     0.000937  1089.260434     0.000000 
  32.940000  1070.000000     0.000935  1089.217042     0.000000 
  32.960000  1059.000000     0.000944  1089.173727     0.000000 
  32.980000  1090.000000     0.000917  1089.130490     0.000000 
  33.000000  1081.000000     0.000925  1089.087331     0.000000 
  33.020000  1051.000000     0.000951  1089.044248     0.000000 
  33.040000  1086.000000     0.000921  1089.001243     0.000000 
  33.060000  1082.000000     0.000924  1088.958314     0.000000 
  33.080000  1102.000000     0.000907  1088.915462     0.000000 
  33.100000  1098.000000     0.000911  1088.872686     0.000000 
  33.120000  1044.000000     0.000958  1088.829988     0.000000 
  33.140000  1076.000000     0.000929  1088.787365     0.000000 
  33.160000  1101.000000     0.000908  1088.744819     0.000000 
  33.180000  1085.000000     0.000922  1088.702349     0.000000 
  33.200000  1084.000000     0.000923  1088.659955     0.000000 
  33.220000  1099.000000     0.000910  1088.617636     0.000000 
  33.240000  1130.000000     0.000885  1088.575394     0.000000 
  33.260000  1136.000000     0.000880  1088.533227     0.000000 
  33.280000  1075.000000     0.000930  1088.491135     0.000000 
  33.300000  1052.000000     0.000951  1088.449119     0.000000 
  33.320000  1053.000000     0.000950  1088.407178     0.000000 
  33.340000  1049.000000     0.000953  1088.365312     0.000000 
  33.360000  1107.000000     0.000903  1088.323521     0.000000 
  33.380000  1076.000000     0.000929  1088.281805     0.000000 
  33.400000  1081.000000     0.000925  1088.240164     0.000000 
  33.420000  1094.000000     0.000914  1088.198598     0.000000 
  33.440000  1085.000000     0.000922  1088.157105     0.000000 
  33.460000  1095.000000     0.000913  1088.115687     0.000000 
  33.480000  1103.000000     0.000907  1088.074344     0.000000 
  33.500000  1051.000000     0.000951  1088.033074     0.000000 
  33.520000  1067.000000     0.000937  1087.991879     0.000000 
  33.540000  1106.000000     0.000904  1087.950757     0.000000 
  33.560000  1076.000000     0.000929  1087.909709     0.000000 
  33.580000  1050.000000     0.000952  1087.868735     0.000000 
  33.600000  1093.000000     0.000915  1087.827834     0.000000 
  33.620000  1103.000000     0.000907  1087.787006     0.000000 
  33.640000  1070.000000     0.000935  1087.746252     0.000000 
  33.660000  1070.000000     0.000935  1087.705571     0.000000 
  33.680000  1122.000000     0.000891  1087.664962     0.000000 
  33.700000  1074.000000     0.000931  1087.624427     0.000000 
  33.720000  1053.000000     0.000950  1087.583964     0.000000 
  33.740000  1062.000000     0.000942  1087.543574     0.000000 
  33.760000  1071.000000     0.000934  1087.503257     0.000000 
  33.780000  1080.000000     0.000926  1087.463012     0.000000 
  33.800000  1078.000000     0.000928  1087.422839     0.000000 
  33.820000  1061.000000     0.000943  1087.382738     0.000000 
  33.840000  1075.000000     0.000930  1087.342709     0.000000 
  33.860000  1096.000000     0.000912  1087.302752     0.000000 
  33.880000  1082.000000     0.000924  1087.262867     0.000000 
  33.900000  1081.000000     0.000925  1087.223053     0.000000 
  33.920000  1078.000000     0.000928  1087.183311     0.000000 
  33.940000  1073.000000     0.000932  1087.143641     0.000000 
  33.960000  1087.000000     0.000920  1087.104041     0.000000 
  33.980000  1093.000000     0.000915  1087.064513     0.000000 
  34.000000  1051.000000     0.000951  1087.025056     0.000000 
  34.020000  1052.000000     0.000951  1086.985669     0.000000 
  34.040000  1071.000000     0.000934  1086.946354     0.000000 
  34.060000  1092.000000     0.000916  1086.907109     0.000000 
  34.080000  1096.000000     0.000912  1086.867934     0.000000 
  34.100000  1143.000000     0.000875  1086.828830     0.000000 
  34.120000  1145.000000     0.000873  1086.789796     0.000000 
  34.140000  1116.000000     0.000896  1086.750833     0.000000 
  34.160000  1133.000000     0.000883  1086.711939     0.000000 
  34.180000  1111.000000     0.000900  1086.673116     0.000000 
  34.200000  1183.000000     0.000845  1086.634362     0.000000 
  34.220000  1215.000000     0.000823  1086.595678     0.000000 
  34.240000  1209.000000     0.000827  1086.557063     0.000000 
  34.260000  1195.000000     0.000837  1086.518518     0.000000 
  34.280000  1178.000000     0.000849  1086.480043     0.000000 
  34.300000  1173.000000     0.000853  1086.441636     0.000000 
  34.320000  1139.000000     0.000878  1086.403299     0.000000 
  34.340000  1138.000000     0.000879  1086.365030     0.000000 
  34.360000  1097.000000     0.000912  1086.326830     0.000000 
  34.380000  1006.000000     0.000994  1086.288699     0.000000 
  34.400000  1089.000000     0.000918  1086.250637     0.000000 
  34.420000  1072.000000     0.000933  1086.212643     0.000000 
  34.440000  1085.000000     0.000922  1086.174718     0.000000 
  34.460000  1079.000000     0.000927  1086.136861     0.000000 
  34.480000  1086.000000     0.000921  1086.099072     0.000000 
  34.500000  1054.000000     0.000949  1086.061350     0.000000 
  34.520000  1044.000000     0.000958  1086.023697     0.000000 
  34.540000  1071.000000     0.000934  1085.986112     0.000000 
  34.560000  1095.000000     0.000913  1085.948594     0.000000 
  34.580000  1097.000000     0.000912  1085.911144     0.000000 
  34.600000  1167.000000     0.000857  1085.873761     0.000000 
  34.620000  1082.000000     0.000924  1085.836446     0.000000 
  34.640000  1043.000000     0.000959  1085.799197     0.000000 
  34.660000  1056.000000     0.000947  1085.762016     0.000000 
  34.680000  1012.000000     0.000988  1085.724902     0.000000 
  34.700000  1029.000000     0.000972  1085.687854     0.000000 
  34.720000  1058.000000     0.000945  1085.650873     0.000000 
  34.740000  1055.000000     0.000948  1085.613959     0.000000 
  34.760000  1038.000000     0.000963  1085.577111     0.000000 
  34.780000  1026.000000     0.000975  1085.540330     0.000000 
  34.800000  1081.000000     0.000925  1085.503615     0.000000 
  34.820000  1114.000000     0.000898  1085.466966     0.000000 
  34.840000  1035.000000     0.000966  1085.430383     0.000000 
  34.860000  1040.000000     0.000962  1085.393866     0.000000 
  34.880000  1072.000000     0.000933  1085.357415     0.000000 
  34.900000  1092.000000     0.000916  1085.321029     0.000000 
  34.920000  1090.000000     0.000917  1085.284709     0.000000 
  34.940000  1089.000000     0.000918  1085.248454     0.000000 
  34.960000  1061.000000     0.000943  1085.212265     0.000000 
  34.980000  1076.000000     0.000929  1085.176141     0.000000 
  35.000000  1109.000000     0.000902  1085.140081     0.000000 
  35.020000  1085.000000     0.000922  1085.104087     0.000000 
  35.040000  1057.000000     0.000946  1085.068158     0.000000 
  35.060000  1060.000000     0.000943  1085.032293     0.000000 
  35.080000  1058.000000     0.000945  1084.996493     0.000000 
  35.100000  1042.000000     0.000960  1084.960758     0.000000 
  35.120000  1040.000000     0.000962  1084.925087     0.000000 
  35.140000  1049.000000     0.000953  1084.889480     0.000000 
  35.160000  1082.000000     0.000924  1084.853938     0.000000 
  35.180000  1107.000000     0.000903  1084.818459     0.000000 
  35.200000  1110.000000     0.000901  1084.783044     0.000000 
  35.220000  1089.000000     0.000918  1087.584994     0.000000 
  35.240000  1079.000000     0.000927  1087.693553     0.000000 
  35.260000  1055.000000     0.000948  1087.813395     0.000000 
  35.280000  1105.000000     0.000905  1087.945714     0.000000 
  35.300000  1123.000000     0.000890  1088.091873     0.000000 
  35.320000  1081.000000     0.000925  1088.253423     0.000000 
  35.340000  1096.000000     0.000912  1088.432142     0.000000 
  35.360000  1079.000000     0.000927  1088.630071     0.000000 
  35.380000  1108.000000     0.000903  1088.849569     0.000000 
  35.400000  1098.000000     0.000911  1089.093364     0.000000 
  35.420000  1040.000000     0.000962  1089.364633     0.000000 
  35.440000  1057.000000     0.000946  1089.667093     0.000000 
  35.460000  1059.000000     0.000944  1090.005109     0.000000 
  35.480000  1069.000000     0.000935  1090.383838     0.000000 
  35.500000  1057.000000     0.000946  1090.809412     0.000000 
  35.520000  1057.000000     0.000946  1091.289160     0.000000 
  35.540000  1080.000000     0.000926  1091.831903     0.000000 
  35.560000  1089.000000     0.000918  1095.358305     0.000000 
  35.580000  1075.000000     0.000930  1096.276123     0.000000 
  35.600000  1031.000000     0.000970  1097.321407     0.000000 
  35.620000  1138.000000     0.000879  1098.518062     0.000000 
  35.640000  1128.000000     0.000887  1099.895903     0.000000 
  35.660000  1151.000000     0.000869  1101.492502     0.000000 
  35.680000  1127.000000     0.000887  1103.355754     0.000000 
  35.700000  1108.000000     0.000903  1105.547495     0.000000 
  35.720000  1147.000000     0.000872  1108.148685     0.000000 
  35.740000  1139.000000     0.000878  1111.267011     0.000000 
  35.760000  1151.000000     0.000869  1115.048262     0.000000 
  35.780000  1155.000000     0.000866  1119.693800     0.000000 
  35.800000  1224.000000     0.000817  1125.488177     0.000000 
  35.820000  1158.000000     0.000864  1132.844206     0.000000 
  35.840000  1260.000000     0.000794  1142.379349     0.000000 
  35.860000  1271.000000     0.000787  1155.050893     0.000000 
  35.880000  1371.000000     0.000729  1172.407571     0.000000 
  35.900000  1420.000000     0.000704  1197.086945     0.000000 
  35.920000  1570.000000     0.000637  1233.885911     0.000000 
  35.940000  1810.000000     0.000552  1292.809322     0.000000 
  35.960000  2144.000000     0.000466  1406.280447     0.000000 
  35.980000  2855.000000     0.000350  1729.523146     0.000000 
  36.000000  4126.000000     0.000242  2753.037402     0.000000 
  36.020000  5674.000000     0.000176  4846.133464     0.000000 
  36.040000  6574.000000     0.000152  6154.533474     0.000000 
  36.060000  5161.000000     0.000194  4457.916567     0.000000 
  36.080000  3355.000000     0.000298  2832.550435     0.000000 
  36.100000  3242.000000     0.000308  2731.009405     0.000000 
  36.120000  3670.000000     0.000272  3584.638111     0.000000 
  36.140000  3532.000000     0.000283  3555.446683     0.000000 
  36.160000  2486.000000     0.000402  2421.722651     0.000000 
  36.180000  1675.000000     0.000597  1649.173627     0.000000 
  36.200000  1396.000000     0.000716  1364.276566     0.000000 
  36.220000  1264.000000     0.000791  1270.258468     0.000000 
  36.240000  1268.000000     0.000789  1226.171612     0.000000 
  36.260000  1264.000000     0.000791  1199.506176     0.000000 
  36.280000  1228.000000     0.000814  1182.020902     0.000000 
  36.300000  1137.000000     0.000880  1170.151720     0.000000 
  36.320000  1103.000000     0.000907  1161.974508     0.000000 
  36.340000  1133.000000     0.000883  1156.370598     0.000000 
  36.360000  1151.000000     0.000869  1152.658811     0.000000 
  36.380000  1164.000000     0.000859  1150.412005     0.000000 
  36.400000  1179.000000     0.000848  1149.359724     0.000000 
  36.420000  1180.000000     0.000847  1164.328155     0.000000 
  36.440000  1147.000000     0.000872  1166.287782     0.000000 
  36.460000  1128.000000     0.000887  1169.251434     0.000000 
  36.480000  1180.000000     0.000847  1173.239573     0.000000 
  36.500000  1217.000000     0.000822  1178.317217     0.000000 
  36.520000  1206.000000     0.000829  1184.595431     0.000000 
  36.540000  1185.000000     0.000844  1192.237184     0.000000 
  36.560000  1228.000000     0.000814  1201.468067     0.000000 
  36.580000  1261.000000     0.000793  1212.593239     0.000000 
  36.600000  1253.000000     0.000798  1226.023008     0.000000 
  36.620000  1270.000000     0.000787  1242.311137     0.000000 
  36.640000  1313.000000     0.000762  1262.212689     0.000000 
  36.660000  1275.000000     0.000784  1286.772940     0.000000 
  36.680000  1357.000000     0.000737  1317.467419     0.000000 
  36.700000  1456.000000     0.000687  1356.429129     0.000000 
  36.720000  1626.000000     0.000615  1404.101120     0.000000 
  36.740000  1819.000000     0.000550  1470.998399     0.000000 
  36.760000  2029.000000     0.000493  1562.017200     0.000000 
  36.780000  2246.000000     0.000445  1691.448562     0.000000 
  36.800000  2767.000000     0.000361  1880.613345     0.000000 
  36.820000  3784.000000     0.000264  2178.951237     0.000000 
  36.840000  5397.000000     0.000185  2738.576829     0.000000 
  36.860000  7433.000000     0.000135  4254.230459     0.000000 
  36.880000  11225.000000     0.000089  8959.081392     0.000000 
  36.900000  17218.000000     0.000058  19056.093249     0.000000 
  36.920000  21839.000000     0.000046  27895.943579     0.000000 
  36.940000  18051.000000     0.000055  21670.329814     0.000000 
  36.960000  10028.000000     0.000100  11929.452673     0.000000 
  36.980000  8119.000000     0.000123  9303.988899     0.000000 
  37.000000  10276.000000     0.000097  12918.133988     0.000000 
  37.020000  11089.000000     0.000090  15188.132571     0.000000 
  37.040000  7851.000000     0.000127  10279.755767     0.000000 
  37.060000  3821.000000     0.000262  5224.320649     0.000000 
  37.080000  2206.000000     0.000453  2910.446229     0.000000 
  37.100000  1815.000000     0.000551  2134.541812     0.000000 
  37.120000  1647.000000     0.000607  1820.620363     0.000000 
  37.140000  1513.000000     0.000661  1642.535217     0.000000 
  37.160000  1461.000000     0.000684  1524.087412     0.000000 
  37.180000  1395.000000     0.000717  1440.974671     0.000000 
  37.200000  1314.000000     0.000761  1380.268223     0.000000 
  37.220000  1269.000000     0.000788  1334.530773     0.000000 
  37.240000  1206.000000     0.000829  1299.219175     0.000000 
  37.260000  1205.000000     0.000830  1271.427216     0.000000 
  37.280000  1215.000000     0.000823  1249.225783     0.000000 
  37.300000  1196.000000     0.000836  1231.296714     0.000000 
  37.320000  1186.000000     0.000843  1216.720301     0.000000 
  37.340000  1180.000000     0.000847  1204.847723     0.000000 
  37.360000  1170.000000     0.000855  1195.223077     0.000000 
  37.380000  1200.000000     0.000833  1187.536277     0.000000 
  37.400000  1174.000000     0.000852  1181.597130     0.000000 
  37.420000  1165.000000     0.000858  1177.326439     0.000000 
  37.440000  1238.000000     0.000808  1174.764551     0.000000 
  37.460000  1225.000000     0.000816  1174.103203     0.000000 
  37.480000  1200.000000     0.000833  1175.755944     0.000000 
  37.500000  1253.000000     0.000798  1180.502291     0.000000 
  37.520000  1343.000000     0.000745  1189.791721     0.000000 
  37.540000  1406.000000     0.000711  1206.540823     0.000000 
  37.560000  1465.000000     0.000683  1239.006522     0.000000 
  37.580000  1615.000000     0.000619  1323.263986     0.000000 
  37.600000  2004.000000     0.000499  1588.102142     0.000000 
  37.620000  2889.000000     0.000346  2227.366101     0.000000 
  37.640000  4594.000000     0.000218  3028.699689     0.000000 
  37.660000  5955.000000     0.000168  2954.929185     0.000000 
  37.680000  3701.000000     0.000270  2170.858166     0.000000 
  37.700000  2205.000000     0.000454  1744.690327     0.000000 
  37.720000  2255.000000     0.000443  1864.549417     0.000000 
  37.740000  2939.000000     0.000340  2170.119679     0.000000 
  37.760000  3277.000000     0.000305  2010.667819     0.000000 
  37.780000  2297.000000     0.000435  1560.692994     0.000000 
  37.800000  1479.000000     0.000676  1288.910454     0.000000 
  37.820000  1295.000000     0.000772  1185.032489     0.000000 
  37.840000  1220.000000     0.000820  1148.313965     0.000000 
  37.860000  1182.000000     0.000846  1130.410168     0.000000 
  37.880000  1158.000000     0.000864  1119.173698     0.000000 
  37.900000  1153.000000     0.000867  1111.442355     0.000000 
  37.920000  1142.000000     0.000876  1105.862537     0.000000 
  37.940000  1087.000000     0.000920  1101.689182     0.000000 
  37.960000  1103.000000     0.000907  1098.477056     0.000000 
  37.980000  1142.000000     0.000876  1095.945910     0.000000 
  38.000000  1131.000000     0.000884  1093.911742     0.000000 
  38.020000  1105.000000     0.000905  1092.249416     0.000000 
  38.040000  1100.000000     0.000909  1090.871256     0.000000 
  38.060000  1124.000000     0.000890  1089.714249     0.000000 
  38.080000  1132.000000     0.000883  1088.732101     0.000000 
  38.100000  1112.000000     0.000899  1087.890142     0.000000 
  38.120000  1097.000000     0.000912  1087.161963     0.000000 
  38.140000  1098.000000     0.000911  1086.527148     0.000000 
  38.160000  1088.000000     0.000919  1085.969700     0.000000 
  38.180000  1113.000000     0.000898  1085.476934     0.000000 
  38.200000  1153.000000     0.000867  1085.038682     0.000000 
  38.220000  1146.000000     0.000873  1084.646710     0.000000 
  38.240000  1119.000000     0.000894  1084.294296     0.000000 
  38.260000  1077.000000     0.000929  1083.975901     0.000000 
  38.280000  1035.000000     0.000966  1083.686932     0.000000 
  38.300000  1094.000000     0.000914  1083.423547     0.000000 
  38.320000  1122.000000     0.000891  1083.182518     0.000000 
  38.340000  1096.000000     0.000912  1082.961112     0.000000 
  38.360000  1106.000000     0.000904  1082.757004     0.000000 
  38.380000  1114.000000     0.000898  1081.498754     0.000000 
  38.400000  1120.000000     0.000893  1081.387814     0.000000 
  38.420000  1092.000000     0.000916  1081.283383     0.000000 
  38.440000  1068.000000     0.000936  1081.184817     0.000000 
  38.460000  1031.000000     0.000970  1081.091552     0.000000 
  38.480000  1105.000000     0.000905  1081.003088     0.000000 
  38.500000  1101.000000     0.000908  1080.918985     0.000000 
  38.520000  1118.000000     0.000894  1080.838853     0.000000 
  38.540000  1086.000000     0.000921  1079.678679     0.000000 
  38.560000  1081.000000     0.000925  1079.652467     0.000000 
  38.580000  1087.000000     0.000920  1079.626300     0.000000 
  38.600000  1102.000000     0.000907  1079.600179     0.000000 
  38.620000  1071.000000     0.000934  1079.574105     0.000000 
  38.640000  1092.000000     0.000916  1079.548076     0.000000 
  38.660000  1081.000000     0.000925  1079.522093     0.000000 
  38.680000  1078.000000     0.000928  1079.496156     0.000000 
  38.700000  1091.000000     0.000917  1079.470264     0.000000 
  38.720000  1038.000000     0.000963  1079.444418     0.000000 
  38.740000  1025.000000     0.000976  1079.418617     0.000000 
  38.760000  1046.000000     0.000956  1079.392862     0.000000 
  38.780000  1070.000000     0.000935  1079.367152     0.000000 
  38.800000  1085.000000     0.000922  1079.341487     0.000000 
  38.820000  1092.000000     0.000916  1079.315866     0.000000 
  38.840000  1080.000000     0.000926  1079.290291     0.000000 
  38.860000  1072.000000     0.000933  1079.264761     0.000000 
  38.880000  1072.000000     0.000933  1079.239275     0.000000 
  38.900000  1051.000000     0.000951  1079.213834     0.000000 
  38.920000  1059.000000     0.000944  1079.188438     0.000000 
  38.940000  1085.000000     0.000922  1079.163086     0.000000 
  38.960000  1091.000000     0.000917  1079.137778     0.000000 
  38.980000  1065.000000     0.000939  1079.112515     0.000000 
  39.000000  1062.000000     0.000942  1079.087295     0.000000 
  39.020000  1097.000000     0.000912  1079.062120     0.000000 
  39.040000  1093.000000     0.000915  1079.036989     0.000000 
  39.060000  1124.000000     0.000890  1079.011902     0.000000 
  39.080000  1120.000000     0.000893  1078.986858     0.000000 
  39.100000  1074.000000     0.000931  1078.961859     0.000000 
  39.120000  1077.000000     0.000929  1078.936903     0.000000 
  39.140000  1084.000000     0.000923  1078.911990     0.000000 
  39.160000  1098.000000     0.000911  1078.887121     0.000000 
  39.180000  1068.000000     0.000936  1078.862295     0.000000 
  39.200000  1081.000000     0.000925  1078.837512     0.000000 
  39.220000  1056.000000     0.000947  1078.812773     0.000000 
  39.240000  1120.000000     0.000893  1078.788076     0.000000 
  39.260000  1087.000000     0.000920  1078.763423     0.000000 
  39.280000  1122.000000     0.000891  1078.738812     0.000000 
  39.300000  1096.000000     0.000912  1078.714245     0.000000 
  39.320000  1079.000000     0.000927  1078.689719     0.000000 
  39.340000  1089.000000     0.000918  1078.665237     0.000000 
  39.360000  1040.000000     0.000962  1078.640797     0.000000 
  39.380000  1035.000000     0.000966  1078.616399     0.000000 
  39.400000  1067.000000     0.000937  1078.592044     0.000000 
  39.420000  1056.000000     0.000947  1078.567731     0.000000 
  39.440000  1071.000000     0.000934  1078.543460     0.000000 
  39.460000  1119.000000     0.000894  1078.519231     0.000000 
  39.480000  1085.000000     0.000922  1078.495044     0.000000 
  39.500000  1028.000000     0.000973  1078.470899     0.000000 
  39.520000  1030.000000     0.000971  1078.446796     0.000000 
  39.540000  1051.000000     0.000951  1078.422734     0.000000 
  39.560000  1066.000000     0.000938  1078.398715     0.000000 
  39.580000  1063.000000     0.000941  1078.374736     0.000000 
  39.600000  1078.000000     0.000928  1078.350799     0.000000 
  39.620000  1071.000000     0.000934  1078.326903     0.000000 
  39.640000  1060.000000     0.000943  1078.303049     0.000000 
  39.660000  1037.000000     0.000964  1078.279235     0.000000 
  39.680000  1059.000000     0.000944  1078.255463     0.000000 
  39.700000  1039.000000     0.000962  1078.231732     0.000000 
  39.720000  1065.000000     0.000939  1078.208041     0.000000 
  39.740000  1083.000000     0.000923  1078.184392     0.000000 
  39.760000  1070.000000     0.000935  1078.160783     0.000000 
  39.780000  1046.000000     0.000956  1078.137214     0.000000 
  39.800000  1089.000000     0.000918  1078.113686     0.000000 
  39.820000  1067.000000     0.000937  1078.090199     0.000000 
  39.840000  1053.000000     0.000950  1078.066752     0.000000 
  39.860000  1075.000000     0.000930  1078.043345     0.000000 
  39.880000  1089.000000     0.000918  1078.019978     0.000000 
  39.900000  1079.000000     0.000927  1077.996652     0.000000 
  39.920000  1091.000000     0.000917  1077.973365     0.000000 
  39.940000  1111.000000     0.000900  1077.950118     0.000000 
  39.960000  1084.000000     0.000923  1077.926911     0.000000 
  39.980000  1097.000000     0.000912  1077.903744     0.000000 
  40.000000  1090.000000     0.000917  1077.880616     0.000000 
  40.020000  1064.000000     0.000940  1077.857528     0.000000 
  40.040000  1071.000000     0.000934  1077.834480     0.000000 
  40.060000  1088.000000     0.000919  1077.811470     0.000000 
  40.080000  1104.000000     0.000906  1077.788500     0.000000 
  40.100000  1068.000000     0.000936  1077.765570     0.000000 
  40.120000  1073.000000     0.000932  1077.742678     0.000000 
  40.140000  1083.000000     0.000923  1077.719825     0.000000 
  40.160000  1076.000000     0.000929  1077.697012     0.000000 
  40.180000  1079.000000     0.000927  1077.674237     0.000000 
  40.200000  1078.000000     0.000928  1077.651500     0.000000 
  40.220000  1029.000000     0.000972  1077.628803     0.000000 
  40.240000  1032.000000     0.000969  1077.606144     0.000000 
  40.260000  1143.000000     0.000875  1077.583524     0.000000 
  40.280000  1095.000000     0.000913  1077.560942     0.000000 
  40.300000  1068.000000     0.000936  1077.538398     0.000000 
  40.320000  1074.000000     0.000931  1077.515892     0.000000 
  40.340000  1115.000000     0.000897  1077.493425     0.000000 
  40.360000  1051.000000     0.000951  1077.470996     0.000000 
  40.380000  1075.000000     0.000930  1077.448604     0.000000 
  40.400000  1080.000000     0.000926  1077.426251     0.000000 
  40.420000  1052.000000     0.000951  1077.403935     0.000000 
  40.440000  1067.000000     0.000937  1077.381657     0.000000 
  40.460000  1112.000000     0.000899  1077.359417     0.000000 
  40.480000  1108.000000     0.000903  1077.337214     0.000000 
  40.500000  1060.000000     0.000943  1077.315049     0.000000 
  40.520000  1124.000000     0.000890  1077.292921     0.000000 
  40.540000  1084.000000     0.000923  1077.270831     0.000000 
  40.560000  1050.000000     0.000952  1077.248777     0.000000 
  40.580000  1033.000000     0.000968  1077.226761     0.000000 
  40.600000  1060.000000     0.000943  1077.204781     0.000000 
  40.620000  1068.000000     0.000936  1077.182839     0.000000 
  40.640000  1097.000000     0.000912  1077.160934     0.000000 
  40.660000  1110.000000     0.000901  1077.139065     0.000000 
  40.680000  1069.000000     0.000935  1077.117233     0.000000 
  40.700000  1112.000000     0.000899  1077.095437     0.000000 
  40.720000  1080.000000     0.000926  1077.073678     0.000000 
  40.740000  1100.000000     0.000909  1077.051956     0.000000 
  40.760000  1105.000000     0.000905  1077.030270     0.000000 
  40.780000  1088.000000     0.000919  1077.008620     0.000000 
  40.800000  1078.000000     0.000928  1076.987006     0.000000 
  40.820000  1050.000000     0.000952  1076.965429     0.000000 
  40.840000  1078.000000     0.000928  1076.943887     0.000000 
  40.860000  1072.000000     0.000933  1076.922381     0.000000 
  40.880000  1073.000000     0.000932  1076.900912     0.000000 
  40.900000  1061.000000     0.000943  1076.879477     0.000000 
  40.920000  1030.000000     0.000971  1076.858079     0.000000 
  40.940000  1044.000000     0.000958  1076.836716     0.000000 
  40.960000  1066.000000     0.000938  1076.815389     0.000000 
  40.980000  1086.000000     0.000921  1076.794097     0.000000 
  41.000000  1075.000000     0.000930  1076.772841     0.000000 
  41.020000  1054.000000     0.000949  1076.751620     0.000000 
  41.040000  1055.000000     0.000948  1076.730433     0.000000 
  41.060000  1066.000000     0.000938  1076.709283     0.000000 
  41.080000  1080.000000     0.000926  1076.688167     0.000000 
  41.100000  1104.000000     0.000906  1076.667086     0.000000 
  41.120000  1134.000000     0.000882  1076.646039     0.000000 
  41.140000  1084.000000     0.000923  1076.625028     0.000000 
  41.160000  1076.000000     0.000929  1076.604051     0.000000 
  41.180000  1045.000000     0.000957  1076.583109     0.000000 
  41.200000  1078.000000     0.000928  1076.562202     0.000000 
  41.220000  1080.000000     0.000926  1076.541329     0.000000 
  41.240000  1043.000000     0.000959  1076.520490     0.000000 
  41.260000  1050.000000     0.000952  1076.499685     0.000000 
  41.280000  1079.000000     0.000927  1076.478915     0.000000 
  41.300000  1026.000000     0.000975  1076.458179     0.000000 
  41.320000  1054.000000     0.000949  1076.437476     0.000000 
  41.340000  1073.000000     0.000932  1076.416808     0.000000 
  41.360000  1080.000000     0.000926  1076.396174     0.000000 
  41.380000  1101.000000     0.000908  1076.375573     0.000000 
  41.400000  1099.000000     0.000910  1076.355006     0.000000 
  41.420000  1081.000000     0.000925  1076.334473     0.000000 
  41.440000  1074.000000     0.000931  1076.313973     0.000000 
  41.460000  1056.000000     0.000947  1076.293507     0.000000 
  41.480000  1078.000000     0.000928  1076.273074     0.000000 
  41.500000  1048.000000     0.000954  1076.252675     0.000000 
  41.520000  1063.000000     0.000941  1076.232308     0.000000 
  41.540000  1061.000000     0.000943  1076.211975     0.000000 
  41.560000  1079.000000     0.000927  1076.191675     0.000000 
  41.580000  1097.000000     0.000912  1076.171408     0.000000 
  41.600000  1061.000000     0.000943  1076.151174     0.000000 
  41.620000  1087.000000     0.000920  1076.130972     0.000000 
  41.640000  1061.000000     0.000943  1076.110803     0.000000 
  41.660000  1051.000000     0.000951  1076.090667     0.000000 
  41.680000  1036.000000     0.000965  1076.070564     0.000000 
  41.700000  1104.000000     0.000906  1076.050493     0.000000 
  41.720000  1104.000000     0.000906  1076.030454     0.000000 
  41.740000  1104.000000     0.000906  1076.010448     0.000000 
  41.760000  1070.000000     0.000935  1075.990474     0.000000 
  41.780000  1095.000000     0.000913  1075.970532     0.000000 
  41.800000  1104.000000     0.000906  1075.950623     0.000000 
  41.820000  1091.000000     0.000917  1075.930745     0.000000 
  41.840000  1064.000000     0.000940  1075.910899     0.000000 
  41.860000  1040.000000     0.000962  1075.891086     0.000000 
  41.880000  1037.000000     0.000964  1075.871304     0.000000 
  41.900000  1072.000000     0.000933  1075.851553     0.000000 
  41.920000  1080.000000     0.000926  1075.831835     0.000000 
  41.940000  1095.000000     0.000913  1075.812147     0.000000 
  41.960000  1071.000000     0.000934  1075.792492     0.000000 
  41.980000  1040.000000     0.000962  1075.772867     0.000000 
  42.000000  1042.000000     0.000960  1075.753274     0.000000 
  42.020000  1099.000000     0.000910  1075.733713     0.000000 
  42.040000  1093.000000     0.000915  1075.714182     0.000000 
  42.060000  1087.000000     0.000920  1075.694683     0.000000 
  42.080000  1060.000000     0.000943  1075.675214     0.000000 
  42.100000  1027.000000     0.000974  1075.655777     0.000000 
  42.120000  1037.000000     0.000964  1075.636370     0.000000 
  42.140000  1038.000000     0.000963  1075.616994     0.000000 
  42.160000  1029.000000     0.000972  1075.597649     0.000000 
  42.180000  1092.000000     0.000916  1075.578334     0.000000 
  42.200000  1060.000000     0.000943  1075.559050     0.000000 
  42.220000  1086.000000     0.000921  1075.539797     0.000000 
  42.240000  1095.000000     0.000913  1075.520574     0.000000 
  42.260000  1093.000000     0.000915  1075.501381     0.000000 
  42.280000  1084.000000     0.000923  1075.482218     0.000000 
  42.300000  1056.000000     0.000947  1075.463086     0.000000 
  42.320000  1034.000000     0.000967  1075.443983     0.000000 
  42.340000  1074.000000     0.000931  1075.424911     0.000000 
  42.360000  1066.000000     0.000938  1075.405868     0.000000 
  42.380000  1118.000000     0.000894  1075.386856     0.000000 
  42.400000  1100.000000     0.000909  1075.367873     0.000000 
  42.420000  1093.000000     0.000915  1075.348920     0.000000 
  42.440000  1055.000000     0.000948  1075.329996     0.000000 
  42.460000  1058.000000     0.000945  1075.311102     0.000000 
  42.480000  1061.000000     0.000943  1075.292238     0.000000 
  42.500000  1020.000000     0.000980  1075.273403     0.000000 
  42.520000  1027.000000     0.000974  1075.254597     0.000000 
  42.540000  1057.000000     0.000946  1075.235820     0.000000 
  42.560000  1038.000000     0.000963  1075.217073     0.000000 
  42.580000  1037.000000     0.000964  1075.198355     0.000000 
  42.600000  1047.000000     0.000955  1075.179665     0.000000 
  42.620000  1045.000000     0.000957  1075.161005     0.000000 
  42.640000  1027.000000     0.000974  1075.142374     0.000000 
  42.660000  1051.000000     0.000951  1075.123771     0.000000 
  42.680000  1063.000000     0.000941  1075.105197     0.000000 
  42.700000  1096.000000     0.000912  1075.086652     0.000000 
  42.720000  1097.000000     0.000912  1075.068135     0.000000 
  42.740000  1072.000000     0.000933  1075.049647     0.000000 
  42.760000  1093.000000     0.000915  1075.031187     0.000000 
  42.780000  1064.000000     0.000940  1075.012756     0.000000 
  42.800000  1025.000000     0.000976  1074.994353     0.000000 
  42.820000  1049.000000     0.000953  1074.975978     0.000000 
  42.840000  1060.000000     0.000943  1074.957631     0.000000 
  42.860000  1027.000000     0.000974  1074.939312     0.000000 
  42.880000  1048.000000     0.000954  1074.921022     0.000000 
  42.900000  1076.000000     0.000929  1074.902759     0.000000 
  42.920000  1088.000000     0.000919  1074.884524     0.000000 
  42.940000  1076.000000     0.000929  1074.866317     0.000000 
  42.960000  1038.000000     0.000963  1074.848137     0.000000 
  42.980000  1044.000000     0.000958  1074.829985     0.000000 
  43.000000  1056.000000     0.000947  1074.811861     0.000000 
  43.020000  1035.000000     0.000966  1074.793764     0.000000 
  43.040000  1046.000000     0.000956  1074.775694     0.000000 
  43.060000  1050.000000     0.000952  1074.757652     0.000000 
  43.080000  1049.000000     0.000953  1074.739637     0.000000 
  43.100000  1043.000000     0.000959  1074.721649     0.000000 
  43.120000  1047.000000     0.000955  1074.703688     0.000000 
  43.140000  1034.000000     0.000967  1074.685755     0.000000 
  43.160000  1041.000000     0.000961  1074.667848     0.000000 
  43.180000  1053.000000     0.000950  1074.649968     0.000000 
  43.200000  1046.000000     0.000956  1074.632115     0.000000 
  43.220000  1069.000000     0.000935  1074.614289     0.000000 
  43.240000  1086.000000     0.000921  1074.596489     0.000000 
  43.260000  1081.000000     0.000925  1074.578716     0.000000 
  43.280000  1045.000000     0.000957  1074.560970     0.000000 
  43.300000  1096.000000     0.000912  1074.543250     0.000000 
  43.320000  1117.000000     0.000895  1074.525556     0.000000 
  43.340000  1059.000000     0.000944  1074.507889     0.000000 
  43.360000  1072.000000     0.000933  1074.490247     0.000000 
  43.380000  1016.000000     0.000984  1074.472633     0.000000 
  43.400000  1028.000000     0.000973  1074.455044     0.000000 
  43.420000  1052.000000     0.000951  1074.437481     0.000000 
  43.440000  1130.000000     0.000885  1074.419944     0.000000 
  43.460000  1051.000000     0.000951  1074.402433     0.000000 
  43.480000  1050.000000     0.000952  1074.384948     0.000000 
  43.500000  1074.000000     0.000931  1074.367488     0.000000 
  43.520000  1057.000000     0.000946  1074.350055     0.000000 
  43.540000  1005.000000     0.000995  1074.332647     0.000000 
  43.560000  1049.000000     0.000953  1074.315264     0.000000 
  43.580000  1038.000000     0.000963  1074.297907     0.000000 
  43.600000  1044.000000     0.000958  1074.280575     0.000000 
  43.620000  1088.000000     0.000919  1074.263269     0.000000 
  43.640000  1103.000000     0.000907  1074.245987     0.000000 
  43.660000  1033.000000     0.000968  1074.228731     0.000000 
  43.680000  1062.000000     0.000942  1074.211500     0.000000 
  43.700000  1117.000000     0.000895  1074.194295     0.000000 
  43.720000  1127.000000     0.000887  1074.177114     0.000000 
  43.740000  1120.000000     0.000893  1074.159958     0.000000 
  43.760000  1135.000000     0.000881  1074.142826     0.000000 
  43.780000  1121.000000     0.000892  1074.125720     0.000000 
  43.800000  1079.000000     0.000927  1074.108638     0.000000 
  43.820000  1067.000000     0.000937  1074.091581     0.000000 
  43.840000  1053.000000     0.000950  1074.074549     0.000000 
  43.860000  1058.000000     0.000945  1074.057541     0.000000 
  43.880000  1084.000000     0.000923  1074.040557     0.000000 
  43.900000  1110.000000     0.000901  1074.023598     0.000000 
  43.920000  1084.000000     0.000923  1074.006663     0.000000 
  43.940000  1064.000000     0.000940  1073.989752     0.000000 
  43.960000  1058.000000     0.000945  1073.972865     0.000000 
  43.980000  1054.000000     0.000949  1073.956003     0.000000 
  44.000000  1036.000000     0.000965  1073.939164     0.000000 
  44.020000  1054.000000     0.000949  1073.922349     0.000000 
  44.040000  1076.000000     0.000929  1073.905559     0.000000 
  44.060000  1066.000000     0.000938  1073.888792     0.000000 
  44.080000  1080.000000     0.000926  1073.872048     0.000000 
  44.100000  1111.000000     0.000900  1073.855329     0.000000 
  44.120000  1081.000000     0.000925  1073.838633     0.000000 
  44.140000  1047.000000     0.000955  1073.821960     0.000000 
  44.160000  1052.000000     0.000951  1073.805311     0.000000 
  44.180000  1056.000000     0.000947  1073.788686     0.000000 
  44.200000  1059.000000     0.000944  1073.772083     0.000000 
  44.220000  1030.000000     0.000971  1073.755504     0.000000 
  44.240000  1061.000000     0.000943  1073.738948     0.000000 
  44.260000  1104.000000     0.000906  1079.661154     0.000000 
  44.280000  1074.000000     0.000931  1079.872806     0.000000 
  44.300000  1098.000000     0.000911  1080.097880     0.000000 
  44.320000  1119.000000     0.000894  1080.337447     0.000000 
  44.340000  1069.000000     0.000935  1080.592685     0.000000 
  44.360000  1105.000000     0.000905  1080.864894     0.000000 
  44.380000  1067.000000     0.000937  1081.155513     0.000000 
  44.400000  1061.000000     0.000943  1081.466138     0.000000 
  44.420000  1033.000000     0.000968  1081.798540     0.000000 
  44.440000  1114.000000     0.000898  1082.154690     0.000000 
  44.460000  1152.000000     0.000868  1082.536790     0.000000 
  44.480000  1068.000000     0.000936  1082.947301     0.000000 
  44.500000  1096.000000     0.000912  1083.388983     0.000000 
  44.520000  1118.000000     0.000894  1083.864941     0.000000 
  44.540000  1096.000000     0.000912  1084.378675     0.000000 
  44.560000  1059.000000     0.000944  1084.934145     0.000000 
  44.580000  1079.000000     0.000927  1085.535841     0.000000 
  44.600000  1087.000000     0.000920  1086.188877     0.000000 
  44.620000  1053.000000     0.000950  1086.899090     0.000000 
  44.640000  1069.000000     0.000935  1087.673173     0.000000 
  44.660000  1085.000000     0.000922  1088.518826     0.000000 
  44.680000  1044.000000     0.000958  1089.444944     0.000000 
  44.700000  1068.000000     0.000936  1096.512519     0.000000 
  44.720000  1083.000000     0.000923  1097.967946     0.000000 
  44.740000  1084.000000     0.000923  1099.568980     0.000000 
  44.760000  1076.000000     0.000929  1101.335567     0.000000 
  44.780000  1095.000000     0.000913  1103.291201     0.000000 
  44.800000  1073.000000     0.000932  1105.463718     0.000000 
  44.820000  1063.000000     0.000941  1107.886294     0.000000 
  44.840000  1051.000000     0.000951  1110.598730     0.000000 
  44.860000  1060.000000     0.000943  1113.649108     0.000000 
  44.880000  1145.000000     0.000873  1117.095961     0.000000 
  44.900000  1169.000000     0.000855  1121.011132     0.000000 
  44.920000  1116.000000     0.000896  1125.483585     0.000000 
  44.940000  1085.000000     0.000922  1130.624578     0.000000 
  44.960000  1109.000000     0.000902  1136.574729     0.000000 
  44.980000  1122.000000     0.000891  1143.513878     0.000000 
  45.000000  1119.000000     0.000894  1151.675025     0.000000 
  45.020000  1153.000000     0.000867  1161.364429     0.000000 
  45.040000  1203.000000     0.000831  1172.991167     0.000000 
  45.060000  1195.000000     0.000837  1187.111610     0.000000 
  45.080000  1249.000000     0.000801  1204.498036     0.000000 
  45.100000  1280.000000     0.000781  1226.247540     0.000000 
  45.120000  1300.000000     0.000769  1253.960518     0.000000 
  45.140000  1370.000000     0.000730  1290.044087     0.000000 
  45.160000  1395.000000     0.000717  1338.252821     0.000000 
  45.180000  1537.000000     0.000651  1404.763130     0.000000 
  45.200000  1670.000000     0.000599  1501.185213     0.000000 
  45.220000  1919.000000     0.000521  1657.731614     0.000000 
  45.240000  2395.000000     0.000418  1978.419571     0.000000 
  45.260000  3191.000000     0.000313  2777.522646     0.000000 
  45.280000  4658.000000     0.000215  4638.869949     0.000000 
  45.300000  7785.000000     0.000128  7880.906933     0.000000 
  45.320000  12142.000000     0.000082  11215.778689     0.000000 
  45.340000  12092.000000     0.000083  11227.928095     0.000000 
  45.360000  6688.000000     0.000150  8057.669890     0.000000 
  45.380000  3797.000000     0.000263  5285.461730     0.000000 
  45.400000  3513.000000     0.000285  4431.477784     0.000000 
  45.420000  4816.000000     0.000208  5297.536905     0.000000 
  45.440000  6817.000000     0.000147  6609.004445     0.000000 
  45.460000  6719.000000     0.000149  6340.512678     0.000000 
  45.480000  3804.000000     0.000263  4560.993593     0.000000 
  45.500000  2093.000000     0.000478  2935.987512     0.000000 
  45.520000  1623.000000     0.000616  2019.564127     0.000000 
  45.540000  1438.000000     0.000695  1621.103594     0.000000 
  45.560000  1364.000000     0.000733  1451.716646     0.000000 
  45.580000  1274.000000     0.000785  1362.413854     0.000000 
  45.600000  1223.000000     0.000818  1304.383906     0.000000 
  45.620000  1245.000000     0.000803  1262.913662     0.000000 
  45.640000  1198.000000     0.000835  1231.964694     0.000000 
  45.660000  1181.000000     0.000847  1208.184586     0.000000 
  45.680000  1133.000000     0.000883  1189.480339     0.000000 
  45.700000  1149.000000     0.000870  1174.478672     0.000000 
  45.720000  1118.000000     0.000894  1162.246220     0.000000 
  45.740000  1106.000000     0.000904  1152.129551     0.000000 
  45.760000  1140.000000     0.000877  1143.659407     0.000000 
  45.780000  1142.000000     0.000876  1136.491258     0.000000 
  45.800000  1126.000000     0.000888  1130.367204     0.000000 
  45.820000  1082.000000     0.000924  1125.090878     0.000000 
  45.840000  1097.000000     0.000912  1120.510483     0.000000 
  45.860000  1113.000000     0.000898  1116.507081     0.000000 
  45.880000  1146.000000     0.000873  1112.986346     0.000000 
  45.900000  1125.000000     0.000889  1109.872643     0.000000 
  45.920000  1127.000000     0.000887  1107.104726     0.000000 
  45.940000  1113.000000     0.000898  1104.632543     0.000000 
  45.960000  1118.000000     0.000894  1102.414854     0.000000 
  45.980000  1093.000000     0.000915  1100.417420     0.000000 
  46.000000  1059.000000     0.000944  1098.611613     0.000000 
  46.020000  1073.000000     0.000932  1096.973340     0.000000 
  46.040000  1028.000000     0.000973  1095.482205     0.000000 
  46.060000  1057.000000     0.000946  1094.120843     0.000000 
  46.080000  1081.000000     0.000925  1092.874393     0.000000 
  46.100000  1084.000000     0.000923  1091.730071     0.000000 
  46.120000  1079.000000     0.000927  1090.676835     0.000000 
  46.140000  1042.000000     0.000960  1089.705104     0.000000 
  46.160000  1113.000000     0.000898  1088.806528     0.000000 
  46.180000  1142.000000     0.000876  1087.973807     0.000000 
  46.200000  1109.000000     0.000902  1087.200532     0.000000 
  46.220000  1086.000000     0.000921  1080.773100     0.000000 
  46.240000  1079.000000     0.000927  1080.386759     0.000000 
  46.260000  1161.000000     0.000861  1080.024103     0.000000 
  46.280000  1207.000000     0.000829  1079.683166     0.000000 
  46.300000  1147.000000     0.000872  1079.362180     0.000000 
  46.320000  1131.000000     0.000884  1079.059557     0.000000 
  46.340000  1119.000000     0.000894  1078.773860     0.000000 
  46.360000  1137.000000     0.000880  1078.503793     0.000000 
  46.380000  1189.000000     0.000841  1078.248181     0.000000 
  46.400000  1139.000000     0.000878  1078.005956     0.000000 
  46.420000  1138.000000     0.000879  1072.059055     0.000000 
  46.440000  1094.000000     0.000914  1072.044660     0.000000 
  46.460000  1100.000000     0.000909  1072.030283     0.000000 
  46.480000  1053.000000     0.000950  1072.015921     0.000000 
  46.500000  1108.000000     0.000903  1072.001575     0.000000 
  46.520000  1095.000000     0.000913  1071.987246     0.000000 
  46.540000  1070.000000     0.000935  1071.972933     0.000000 
  46.560000  1091.000000     0.000917  1071.958636     0.000000 
  46.580000  1126.000000     0.000888  1071.944354     0.000000 
  46.600000  1108.000000     0.000903  1071.930089     0.000000 
  46.620000  1106.000000     0.000904  1071.915839     0.000000 
  46.640000  1065.000000     0.000939  1071.901606     0.000000 
  46.660000  1043.000000     0.000959  1071.887388     0.000000 
  46.680000  1088.000000     0.000919  1071.873185     0.000000 
  46.700000  1068.000000     0.000936  1071.858999     0.000000 
  46.720000  1034.000000     0.000967  1071.844828     0.000000 
  46.740000  1044.000000     0.000958  1071.830672     0.000000 
  46.760000  1063.000000     0.000941  1071.816532     0.000000 
  46.780000  1078.000000     0.000928  1071.802407     0.000000 
  46.800000  1093.000000     0.000915  1071.788298     0.000000 
  46.820000  1068.000000     0.000936  1071.774203     0.000000 
  46.840000  1067.000000     0.000937  1071.760125     0.000000 
  46.860000  1073.000000     0.000932  1071.746061     0.000000 
  46.880000  1075.000000     0.000930  1071.732012     0.000000 
  46.900000  1085.000000     0.000922  1071.717979     0.000000 
  46.920000  1066.000000     0.000938  1071.703960     0.000000 
  46.940000  1062.000000     0.000942  1071.689957     0.000000 
  46.960000  1047.000000     0.000955  1071.675968     0.000000 
  46.980000  1067.000000     0.000937  1071.661994     0.000000 
  47.000000  1087.000000     0.000920  1071.648035     0.000000 
  47.020000  1102.000000     0.000907  1071.634091     0.000000 
  47.040000  1092.000000     0.000916  1071.620161     0.000000 
  47.060000  1062.000000     0.000942  1071.606246     0.000000 
  47.080000  1108.000000     0.000903  1071.592346     0.000000 
  47.100000  1085.000000     0.000922  1071.578460     0.000000 
  47.120000  1083.000000     0.000923  1071.564589     0.000000 
  47.140000  1095.000000     0.000913  1071.550732     0.000000 
  47.160000  1070.000000     0.000935  1071.536889     0.000000 
  47.180000  1063.000000     0.000941  1071.523061     0.000000 
  47.200000  1042.000000     0.000960  1071.509247     0.000000 
  47.220000  1079.000000     0.000927  1071.495447     0.000000 
  47.240000  1093.000000     0.000915  1071.481661     0.000000 
  47.260000  1063.000000     0.000941  1071.467889     0.000000 
  47.280000  1014.000000     0.000986  1071.454132     0.000000 
  47.300000  1041.000000     0.000961  1071.440388     0.000000 
  47.320000  1071.000000     0.000934  1071.426658     0.000000 
  47.340000  1091.000000     0.000917  1071.412943     0.000000 
  47.360000  1114.000000     0.000898  1071.399241     0.000000 
  47.380000  1097.000000     0.000912  1071.385552     0.000000 
  47.400000  1014.000000     0.000986  1071.371878     0.000000 
  47.420000  1086.000000     0.000921  1071.358217     0.000000 
  47.440000  1100.000000     0.000909  1071.344570     0.000000 
  47.460000  1094.000000     0.000914  1071.330936     0.000000 
  47.480000  1071.000000     0.000934  1071.317316     0.000000 
  47.500000  1049.000000     0.000953  1071.303709     0.000000 
  47.520000  1042.000000     0.000960  1071.290116     0.000000 
  47.540000  1061.000000     0.000943  1071.276536     0.000000 
  47.560000  1102.000000     0.000907  1071.262969     0.000000 
  47.580000  1105.000000     0.000905  1071.249416     0.000000 
  47.600000  1070.000000     0.000935  1071.235875     0.000000 
  47.620000  1108.000000     0.000903  1071.222348     0.000000 
  47.640000  1112.000000     0.000899  1071.208834     0.000000 
  47.660000  1087.000000     0.000920  1071.195333     0.000000 
  47.680000  1067.000000     0.000937  1071.181845     0.000000 
  47.700000  1081.000000     0.000925  1071.168370     0.000000 
  47.720000  1090.000000     0.000917  1071.154908     0.000000 
  47.740000  1037.000000     0.000964  1071.141459     0.000000 
  47.760000  1038.000000     0.000963  1071.128022     0.000000 
  47.780000  1077.000000     0.000929  1071.114598     0.000000 
  47.800000  1069.000000     0.000935  1071.101187     0.000000 
  47.820000  1030.000000     0.000971  1071.087789     0.000000 
  47.840000  1060.000000     0.000943  1071.074403     0.000000 
  47.860000  1077.000000     0.000929  1071.061029     0.000000 
  47.880000  1081.000000     0.000925  1071.047668     0.000000 
  47.900000  1084.000000     0.000923  1071.034320     0.000000 
  47.920000  1015.000000     0.000985  1071.020983     0.000000 
  47.940000   982.000000     0.001018  1071.007659     0.000000 
  47.960000  1037.000000     0.000964  1070.994348     0.000000 
  47.980000  1096.000000     0.000912  1070.981048     0.000000 
  48.000000  1096.000000     0.000912  1070.967761     0.000000 
  48.020000  1064.000000     0.000940  1070.954486     0.000000 
  48.040000  1068.000000     0.000936  1070.941223     0.000000 
  48.060000  1039.000000     0.000962  1070.927972     0.000000 
  48.080000  1038.000000     0.000963  1070.914733     0.000000 
  48.100000  1126.000000     0.000888  1070.901506     0.000000 
  48.120000  1111.000000     0.000900  1070.888291     0.000000 
  48.140000  1070.000000     0.000935  1070.875087     0.000000 
  48.160000  1112.000000     0.000899  1070.861895     0.000000 
  48.180000  1138.000000     0.000879  1070.848716     0.000000 
  48.200000  1110.000000     0.000901  1070.835547     0.000000 
  48.220000  1093.000000     0.000915  1070.822391     0.000000 
  48.240000  1072.000000     0.000933  1072.610341     0.000000 
  48.260000  1064.000000     0.000940  1072.661716     0.000000 
  48.280000  1093.000000     0.000915  1072.716629     0.000000 
  48.300000  1052.000000     0.000951  1072.775343     0.000000 
  48.320000  1067.000000     0.000937  1072.838144     0.000000 
  48.340000  1116.000000     0.000896  1072.905346     0.000000 
  48.360000  1125.000000     0.000889  1072.977294     0.000000 
  48.380000  1095.000000     0.000913  1073.054367     0.000000 
  48.400000  1074.000000     0.000931  1073.136984     0.000000 
  48.420000  1052.000000     0.000951  1073.225606     0.000000 
  48.440000  1061.000000     0.000943  1073.320744     0.000000 
  48.460000  1139.000000     0.000878  1073.422966     0.000000 
  48.480000  1108.000000     0.000903  1073.532900     0.000000 
  48.500000  1105.000000     0.000905  1073.651249     0.000000 
  48.520000  1096.000000     0.000912  1073.778795     0.000000 
  48.540000  1107.000000     0.000903  1073.916415     0.000000 
  48.560000  1050.000000     0.000952  1074.065092     0.000000 
  48.580000  1074.000000     0.000931  1074.225931     0.000000 
  48.600000  1113.000000     0.000898  1074.400183     0.000000 
  48.620000  1144.000000     0.000874  1074.589258     0.000000 
  48.640000  1109.000000     0.000902  1074.794761     0.000000 
  48.660000  1065.000000     0.000939  1075.018518     0.000000 
  48.680000  1067.000000     0.000937  1075.262617     0.000000 
  48.700000  1081.000000     0.000925  1077.299093     0.000000 
  48.720000  1079.000000     0.000927  1077.681174     0.000000 
  48.740000  1078.000000     0.000928  1078.098935     0.000000 
  48.760000  1111.000000     0.000900  1078.556822     0.000000 
  48.780000  1066.000000     0.000938  1079.060001     0.000000 
  48.800000  1081.000000     0.000925  1084.402344     0.000000 
  48.820000  1080.000000     0.000926  1085.184079     0.000000 
  48.840000  1061.000000     0.000943  1086.041630     0.000000 
  48.860000  1072.000000     0.000933  1086.985548     0.000000 
  48.880000  1088.000000     0.000919  1088.028358     0.000000 
  48.900000  1083.000000     0.000923  1089.185024     0.000000 
  48.920000  1082.000000     0.000924  1090.473562     0.000000 
  48.940000  1062.000000     0.000942  1091.915829     0.000000 
  48.960000  1069.000000     0.000935  1093.538569     0.000000 
  48.980000  1068.000000     0.000936  1095.374817     0.000000 
  49.000000  1094.000000     0.000914  1097.465786     0.000000 
  49.020000  1128.000000     0.000887  1099.863475     0.000000 
  49.040000  1085.000000     0.000922  1102.634289     0.000000 
  49.060000  1052.000000     0.000951  1105.864182     0.000000 
  49.080000  1109.000000     0.000902  1109.666090     0.000000 
  49.100000  1156.000000     0.000865  1114.190882     0.000000 
  49.120000  1185.000000     0.000844  1119.643900     0.000000 
  49.140000  1162.000000     0.000861  1126.310547     0.000000 
  49.160000  1182.000000     0.000846  1134.597056     0.000000 
  49.180000  1194.000000     0.000838  1145.097550     0.000000 
  49.200000  1227.000000     0.000815  1158.708935     0.000000 
  49.220000  1237.000000     0.000808  1176.844584     0.000000 
  49.240000  1227.000000     0.000815  1201.946663     0.000000 
  49.260000  1289.000000     0.000776  1239.365370     0.000000 
  49.280000  1460.000000     0.000685  1309.926338     0.000000 
  49.300000  1695.000000     0.000590  1453.471660     0.000000 
  49.320000  1999.000000     0.000500  1787.724914     0.000000 
  49.340000  2401.000000     0.000416  2454.949100     0.000000 
  49.360000  3309.000000     0.000302  3432.588991     0.000000 
  49.380000  4357.000000     0.000230  4207.592643     0.000000 
  49.400000  4140.000000     0.000242  3959.330282     0.000000 
  49.420000  2621.000000     0.000382  3039.771374     0.000000 
  49.440000  1802.000000     0.000555  2295.757431     0.000000 
  49.460000  1839.000000     0.000544  2037.986515     0.000000 
  49.480000  2075.000000     0.000482  2228.910515     0.000000 
  49.500000  2484.000000     0.000403  2628.852172     0.000000 
  49.520000  2818.000000     0.000355  2772.216855     0.000000 
  49.540000  2291.000000     0.000436  2401.228340     0.000000 
  49.560000  1545.000000     0.000647  1896.821244     0.000000 
  49.580000  1320.000000     0.000758  1541.586023     0.000000 
  49.600000  1252.000000     0.000799  1360.729205     0.000000 
  49.620000  1240.000000     0.000806  1284.663214     0.000000 
  49.640000  1196.000000     0.000836  1253.560532     0.000000 
  49.660000  1178.000000     0.000849  1240.360814     0.000000 
  49.680000  1188.000000     0.000842  1236.365167     0.000000 
  49.700000  1253.000000     0.000798  1239.063487     0.000000 
  49.720000  1292.000000     0.000774  1247.849230     0.000000 
  49.740000  1287.000000     0.000777  1263.050853     0.000000 
  49.760000  1325.000000     0.000755  1285.833851     0.000000 
  49.780000  1339.000000     0.000747  1318.417156     0.000000 
  49.800000  1353.000000     0.000739  1364.651708     0.000000 
  49.820000  1454.000000     0.000688  1431.639854     0.000000 
  49.840000  1595.000000     0.000627  1536.083855     0.000000 
  49.860000  1833.000000     0.000546  1729.313306     0.000000 
  49.880000  2327.000000     0.000430  2163.890731     0.000000 
  49.900000  3149.000000     0.000318  3163.025081     0.000000 
  49.920000  5146.000000     0.000194  5078.001692     0.000000 
  49.940000  8494.000000     0.000118  7721.506754     0.000000 
  49.960000  11516.000000     0.000087  9521.856362     0.000000 
  49.980000  11472.000000     0.000087  8499.867724     0.000000 
  50.000000  7483.000000     0.000134  6006.130437     0.000000 
  50.020000  4149.000000     0.000241  4135.252432     0.000000 
  50.040000  3404.000000     0.000294  3561.245128     0.000000 
  50.060000  4135.000000     0.000242  4131.799506     0.000000 
  50.080000  5637.000000     0.000177  5194.295254     0.000000 
  50.100000  6901.000000     0.000145  5512.090767     0.000000 
  50.120000  6135.000000     0.000163  4480.743792     0.000000 
  50.140000  3668.000000     0.000273  3131.540379     0.000000 
  50.160000  2121.000000     0.000471  2182.613844     0.000000 
  50.180000  1603.000000     0.000624  1689.727496     0.000000 
  50.200000  1456.000000     0.000687  1469.087865     0.000000 
  50.220000  1357.000000     0.000737  1363.874305     0.000000 
  50.240000  1231.000000     0.000812  1302.239700     0.000000 
  50.260000  1238.000000     0.000808  1259.996621     0.000000 
  50.280000  1183.000000     0.000845  1228.893916     0.000000 
  50.300000  1148.000000     0.000871  1205.150882     0.000000 
  50.320000  1170.000000     0.000855  1186.558492     0.000000 
  50.340000  1111.000000     0.000900  1169.954254     0.000000 
  50.360000  1087.000000     0.000920  1157.942281     0.000000 
  50.380000  1116.000000     0.000896  1148.031039     0.000000 
  50.400000  1102.000000     0.000907  1139.747075     0.000000 
  50.420000  1133.000000     0.000883  1132.744969     0.000000 
  50.440000  1147.000000     0.000872  1126.767570     0.000000 
  50.460000  1119.000000     0.000894  1121.620001     0.000000 
  50.480000  1082.000000     0.000924  1117.152235     0.000000 
  50.500000  1091.000000     0.000917  1113.247133     0.000000 
  50.520000  1127.000000     0.000887  1109.812074     0.000000 
  50.540000  1147.000000     0.000872  1106.772989     0.000000 
  50.560000  1141.000000     0.000876  1102.357875     0.000000 
  50.580000  1085.000000     0.000922  1099.999000     0.000000 
  50.600000  1095.000000     0.000913  1097.884497     0.000000 
  50.620000  1114.000000     0.000898  1095.981248     0.000000 
  50.640000  1115.000000     0.000897  1094.261609     0.000000 
  50.660000  1136.000000     0.000880  1092.702353     0.000000 
  50.680000  1107.000000     0.000903  1091.283840     0.000000 
  50.700000  1117.000000     0.000895  1089.989370     0.000000 
  50.720000  1103.000000     0.000907  1088.804667     0.000000 
  50.740000  1092.000000     0.000916  1087.717465     0.000000 
  50.760000  1081.000000     0.000925  1086.717176     0.000000 
  50.780000  1075.000000     0.000930  1085.794618     0.000000 
  50.800000  1074.000000     0.000931  1085.077707     0.000000 
  50.820000  1062.000000     0.000942  1084.292317     0.000000 
  50.840000  1102.000000     0.000907  1083.563800     0.000000 
  50.860000  1133.000000     0.000883  1082.886782     0.000000 
  50.880000  1094.000000     0.000914  1082.256517     0.000000 
  50.900000  1069.000000     0.000935  1081.668809     0.000000 
  50.920000  1090.000000     0.000917  1081.119930     0.000000 
  50.940000  1081.000000     0.000925  1076.070654     0.000000 
  50.960000  1073.000000     0.000932  1075.796894     0.000000 
  50.980000  1055.000000     0.000948  1075.539197     0.000000 
  51.000000  1083.000000     0.000923  1075.296406     0.000000 
  51.020000  1047.000000     0.000955  1075.067476     0.000000 
  51.040000  1073.000000     0.000932  1074.851464     0.000000 
  51.060000  1077.000000     0.000929  1074.647521     0.000000 
  51.080000  1090.000000     0.000917  1074.454884     0.000000 
  51.100000  1104.000000     0.000906  1074.272863     0.000000 
  51.120000  1080.000000     0.000926  1074.100841     0.000000 
  51.140000  1124.000000     0.000890  1069.267302     0.000000 
  51.160000  1113.000000     0.000898  1069.268250     0.000000 
  51.180000  1083.000000     0.000923  1069.270163     0.000000 
  51.200000  1054.000000     0.000949  1069.273140     0.000000 
  51.220000  1097.000000     0.000912  1069.277291     0.000000 
  51.240000  1094.000000     0.000914  1069.282741     0.000000 
  51.260000  1145.000000     0.000873  1069.289633     0.000000 
  51.280000  1057.000000     0.000946  1069.298129     0.000000 
  51.300000  1086.000000     0.000921  1069.447966     0.000000 
  51.320000  1099.000000     0.000910  1069.467204     0.000000 
  51.340000  1069.000000     0.000935  1069.489226     0.000000 
  51.360000  1032.000000     0.000969  1069.514373     0.000000 
  51.380000  1051.000000     0.000951  1069.543044     0.000000 
  51.400000  1039.000000     0.000962  1069.575700     0.000000 
  51.420000  1069.000000     0.000935  1069.612883     0.000000 
  51.440000  1088.000000     0.000919  1069.655230     0.000000 
  51.460000  1081.000000     0.000925  1069.703495     0.000000 
  51.480000  1009.000000     0.000991  1069.758574     0.000000 
  51.500000  1060.000000     0.000943  1069.821545     0.000000 
  51.520000  1086.000000     0.000921  1069.893704     0.000000 
  51.540000  1037.000000     0.000964  1069.976629     0.000000 
  51.560000  1022.000000     0.000978  1070.072252     0.000000 
  51.580000  1082.000000     0.000924  1070.182964     0.000000 
  51.600000  1061.000000     0.000943  1070.311747     0.000000 
  51.620000  1063.000000     0.000941  1070.462364     0.000000 
  51.640000  1090.000000     0.000917  1070.639618     0.000000 
  51.660000  1072.000000     0.000933  1070.849713     0.000000 
  51.680000  1074.000000     0.000931  1071.100785     0.000000 
  51.700000  1069.000000     0.000935  1071.403663     0.000000 
  51.720000  1101.000000     0.000908  1071.773020     0.000000 
  51.740000  1084.000000     0.000923  1072.229138     0.000000 
  51.760000  1087.000000     0.000920  1072.800672     0.000000 
  51.780000  1090.000000     0.000917  1073.529162     0.000000 
  51.800000  1093.000000     0.000915  1074.476623     0.000000 
  51.820000  1083.000000     0.000923  1075.739356     0.000000 
  51.840000  1127.000000     0.000887  1077.479360     0.000000 
  51.860000  1110.000000     0.000901  1080.030808     0.000000 
  51.880000  1087.000000     0.000920  1084.320697     0.000000 
  51.900000  1110.000000     0.000901  1093.993832     0.000000 
  51.920000  1166.000000     0.000858  1114.092929     0.000000 
  51.940000  1241.000000     0.000806  1155.322030     0.000000 
  51.960000  1350.000000     0.000741  1221.058111     0.000000 
  51.980000  1522.000000     0.000657  1288.573919     0.000000 
  52.000000  1521.000000     0.000657  1299.057926     0.000000 
  52.020000  1348.000000     0.000742  1241.707810     0.000000 
  52.040000  1209.000000     0.000827  1177.305393     0.000000 
  52.060000  1134.000000     0.000882  1141.043062     0.000000 
  52.080000  1149.000000     0.000870  1138.376974     0.000000 
  52.100000  1242.000000     0.000805  1161.032507     0.000000 
  52.120000  1301.000000     0.000769  1189.132450     0.000000 
  52.140000  1317.000000     0.000759  1189.456204     0.000000 
  52.160000  1241.000000     0.000806  1157.222536     0.000000 
  52.180000  1161.000000     0.000861  1121.884218     0.000000 
  52.200000  1098.000000     0.000911  1098.293489     0.000000 
  52.220000  1051.000000     0.000951  1086.221443     0.000000 
  52.240000  1063.000000     0.000941  1080.748386     0.000000 
  52.260000  1135.000000     0.000881  1078.075474     0.000000 
  52.280000  1071.000000     0.000934  1076.498353     0.000000 
  52.300000  1033.000000     0.000968  1075.432629     0.000000 
  52.320000  1050.000000     0.000952  1074.670642     0.000000 
  52.340000  1114.000000     0.000898  1074.114510     0.000000 
  52.360000  1109.000000     0.000902  1073.706608     0.000000 
  52.380000  1063.000000     0.000941  1073.409918     0.000000 
  52.400000  1016.000000     0.000984  1074.057522     0.000000 
  52.420000  1093.000000     0.000915  1073.959316     0.000000 
  52.440000  1079.000000     0.000927  1073.922729     0.000000 
  52.460000  1055.000000     0.000948  1073.940340     0.000000 
  52.480000  1073.000000     0.000932  1074.007432     0.000000 
  52.500000  1062.000000     0.000942  1074.121361     0.000000 
  52.520000  1060.000000     0.000943  1074.281158     0.000000 
  52.540000  1095.000000     0.000913  1074.487311     0.000000 
  52.560000  1056.000000     0.000947  1074.741649     0.000000 
  52.580000  1047.000000     0.000955  1075.047337     0.000000 
  52.600000  1090.000000     0.000917  1075.408947     0.000000 
  52.620000  1100.000000     0.000909  1075.832621     0.000000 
  52.640000  1053.000000     0.000950  1076.326329     0.000000 
  52.660000   996.000000     0.001004  1076.900235     0.000000 
  52.680000  1029.000000     0.000972  1077.567222     0.000000 
  52.700000  1045.000000     0.000957  1078.343612     0.000000 
  52.720000  1081.000000     0.000925  1079.250158     0.000000 
  52.740000  1036.000000     0.000965  1080.313432     0.000000 
  52.760000  1076.000000     0.000929  1081.567767     0.000000 
  52.780000  1113.000000     0.000898  1083.058045     0.000000 
  52.800000  1091.000000     0.000917  1084.843736     0.000000 
  52.820000  1088.000000     0.000919  1087.004888     0.000000 
  52.840000  1107.000000     0.000903  1089.651216     0.000000 
  52.860000  1122.000000     0.000891  1092.936217     0.000000 
  52.880000  1118.000000     0.000894  1097.079769     0.000000 
  52.900000  1117.000000     0.000895  1102.405526     0.000000 
  52.920000  1104.000000     0.000906  1109.406201     0.000000 
  52.940000  1120.000000     0.000893  1118.876084     0.000000 
  52.960000  1162.000000     0.000861  1132.294331     0.000000 
  52.980000  1226.000000     0.000816  1153.303518     0.000000 
  53.000000  1291.000000     0.000775  1192.661030     0.000000 
  53.020000  1446.000000     0.000692  1279.719004     0.000000 
  53.040000  1706.000000     0.000586  1468.045413     0.000000 
  53.060000  2259.000000     0.000443  1804.857881     0.000000 
  53.080000  3159.000000     0.000317  2240.290111     0.000000 
  53.100000  4162.000000     0.000240  2504.481166     0.000000 
  53.120000  4133.000000     0.000242  2311.116497     0.000000 
  53.140000  2869.000000     0.000349  1898.976539     0.000000 
  53.160000  1903.000000     0.000525  1583.139098     0.000000 
  53.180000  1589.000000     0.000629  1463.027717     0.000000 
  53.200000  1707.000000     0.000586  1524.202010     0.000000 
  53.220000  2130.000000     0.000469  1695.922865     0.000000 
  53.240000  2567.000000     0.000390  1826.407676     0.000000 
  53.260000  2669.000000     0.000375  1740.816339     0.000000 
  53.280000  2033.000000     0.000492  1520.618233     0.000000 
  53.300000  1501.000000     0.000666  1327.886521     0.000000 
  53.320000  1247.000000     0.000802  1211.232922     0.000000 
  53.340000  1165.000000     0.000858  1154.144212     0.000000 
  53.360000  1150.000000     0.000870  1127.650140     0.000000 
  53.380000  1128.000000     0.000887  1113.609534     0.000000 
  53.400000  1092.000000     0.000916  1104.642188     0.000000 
  53.420000  1155.000000     0.000866  1098.236952     0.000000 
  53.440000  1075.000000     0.000930  1093.420412     0.000000 
  53.460000  1085.000000     0.000922  1089.689128     0.000000 
  53.480000  1105.000000     0.000905  1086.732622     0.000000 
  53.500000  1086.000000     0.000921  1084.345659     0.000000 
  53.520000  1064.000000     0.000940  1082.387502     0.000000 
  53.540000  1060.000000     0.000943  1080.758867     0.000000 
  53.560000  1068.000000     0.000936  1079.387990     0.000000 
  53.580000  1073.000000     0.000932  1078.221882     0.000000 
  53.600000  1061.000000     0.000943  1077.220682     0.000000 
  53.620000  1064.000000     0.000940  1076.353901     0.000000 
  53.640000  1087.000000     0.000920  1075.597872     0.000000 
  53.660000  1122.000000     0.000891  1074.933983     0.000000 
  53.680000  1143.000000     0.000875  1074.347420     0.000000 
  53.700000  1081.000000     0.000925  1073.826265     0.000000 
  53.720000  1041.000000     0.000961  1073.360836     0.000000 
  53.740000  1039.000000     0.000962  1072.943197     0.000000 
  53.760000  1080.000000     0.000926  1072.566793     0.000000 
  53.780000  1088.000000     0.000919  1072.226164     0.000000 
  53.800000  1051.000000     0.000951  1071.916733     0.000000 
  53.820000  1047.000000     0.000955  1071.634642     0.000000 
  53.840000  1048.000000     0.000954  1071.376612     0.000000 
  53.860000  1067.000000     0.000937  1071.139850     0.000000 
  53.880000  1066.000000     0.000938  1070.921956     0.000000 
  53.900000  1051.000000     0.000951  1070.720864     0.000000 
  53.920000  1063.000000     0.000941  1070.534785     0.000000 
  53.940000  1044.000000     0.000958  1070.362163     0.000000 
  53.960000  1062.000000     0.000942  1070.201640     0.000000 
  53.980000  1042.000000     0.000960  1070.052026     0.000000 
  54.000000  1075.000000     0.000930  1069.912276     0.000000 
  54.020000  1094.000000     0.000914  1069.781465     0.000000 
  54.040000  1051.000000     0.000951  1069.658778     0.000000 
  54.060000  1028.000000     0.000973  1069.543489     0.000000 
  54.080000  1014.000000     0.000986  1069.434953     0.000000 
  54.100000  1008.000000     0.000992  1069.332592     0.000000 
  54.120000  1008.000000     0.000992  1068.439506     0.000000 
  54.140000   992.000000     0.001008  1068.383083     0.000000 
  54.160000  1047.000000     0.000955  1068.329175     0.000000 
  54.180000  1045.000000     0.000957  1068.277597     0.000000 
  54.200000  1028.000000     0.000973  1068.228182     0.000000 
  54.220000  1045.000000     0.000957  1068.180777     0.000000 
  54.240000  1069.000000     0.000935  1068.135242     0.000000 
  54.260000  1107.000000     0.000903  1068.091450     0.000000 
  54.280000  1120.000000     0.000893  1068.049283     0.000000 
  54.300000  1088.000000     0.000919  1068.008635     0.000000 
  54.320000  1054.000000     0.000949  1067.145451     0.000000 
  54.340000  1081.000000     0.000925  1067.133915     0.000000 
  54.360000  1081.000000     0.000925  1067.122379     0.000000 
  54.380000  1086.000000     0.000921  1067.110843     0.000000 
  54.400000  1076.000000     0.000929  1067.099307     0.000000 
  54.420000  1010.000000     0.000990  1067.087771     0.000000 
  54.440000  1020.000000     0.000980  1067.076235     0.000000 
  54.460000  1097.000000     0.000912  1067.064700     0.000000 
  54.480000  1045.000000     0.000957  1067.053164     0.000000 
  54.500000  1041.000000     0.000961  1067.041629     0.000000 
  54.520000  1078.000000     0.000928  1067.030093     0.000000 
  54.540000  1073.000000     0.000932  1067.018557     0.000000 
  54.560000  1041.000000     0.000961  1067.007022     0.000000 
  54.580000  1022.000000     0.000978  1066.995486     0.000000 
  54.600000  1038.000000     0.000963  1066.983950     0.000000 
  54.620000  1068.000000     0.000936  1066.972414     0.000000 
  54.640000  1059.000000     0.000944  1066.960877     0.000000 
  54.660000  1072.000000     0.000933  1066.949341     0.000000 
  54.680000  1048.000000     0.000954  1066.937804     0.000000 
  54.700000  1052.000000     0.000951  1066.926267     0.000000 
  54.720000  1072.000000     0.000933  1066.914730     0.000000 
  54.740000  1090.000000     0.000917  1066.903193     0.000000 
  54.760000  1050.000000     0.000952  1066.891655     0.000000 
  54.780000  1051.000000     0.000951  1066.880117     0.000000 
  54.800000  1081.000000     0.000925  1066.868578     0.000000 
  54.820000  1093.000000     0.000915  1066.857039     0.000000 
  54.840000  1069.000000     0.000935  1066.845500     0.000000 
  54.860000  1084.000000     0.000923  1066.833960     0.000000 
  54.880000  1041.000000     0.000961  1066.822420     0.000000 
  54.900000  1012.000000     0.000988  1066.810879     0.000000 
  54.920000  1075.000000     0.000930  1066.799338     0.000000 
  54.940000  1082.000000     0.000924  1066.787796     0.000000 
  54.960000  1072.000000     0.000933  1066.776254     0.000000 
  54.980000  1057.000000     0.000946  1066.764711     0.000000 
  55.000000  1044.000000     0.000958  1066.753167     0.000000 
  55.020000  1086.000000     0.000921  1066.741623     0.000000 
  55.040000  1044.000000     0.000958  1066.730078     0.000000 
  55.060000  1043.000000     0.000959  1066.718533     0.000000 
  55.080000  1054.000000     0.000949  1066.706987     0.000000 
  55.100000  1074.000000     0.000931  1066.695440     0.000000 
  55.120000  1092.000000     0.000916  1066.683892     0.000000 
  55.140000  1067.000000     0.000937  1066.672344     0.000000 
  55.160000  1100.000000     0.000909  1066.660795     0.000000 
  55.180000  1069.000000     0.000935  1066.649245     0.000000 
  55.200000  1045.000000     0.000957  1066.637694     0.000000 
  55.220000  1024.000000     0.000977  1066.626142     0.000000 
  55.240000  1025.000000     0.000976  1066.614589     0.000000 
  55.260000  1072.000000     0.000933  1066.603036     0.000000 
  55.280000  1042.000000     0.000960  1066.591481     0.000000 
  55.300000  1016.000000     0.000984  1066.579926     0.000000 
  55.320000  1014.000000     0.000986  1066.568369     0.000000 
  55.340000  1100.000000     0.000909  1066.556812     0.000000 
  55.360000  1104.000000     0.000906  1066.545254     0.000000 
  55.380000  1083.000000     0.000923  1066.533694     0.000000 
  55.400000  1023.000000     0.000978  1066.522134     0.000000 
  55.420000  1016.000000     0.000984  1066.510572     0.000000 
  55.440000  1024.000000     0.000977  1066.499009     0.000000 
  55.460000  1026.000000     0.000975  1066.487445     0.000000 
  55.480000  1060.000000     0.000943  1066.475880     0.000000 
  55.500000  1066.000000     0.000938  1066.464314     0.000000 
  55.520000  1062.000000     0.000942  1066.452747     0.000000 
  55.540000  1043.000000     0.000959  1066.441178     0.000000 
  55.560000  1056.000000     0.000947  1066.429608     0.000000 
  55.580000  1038.000000     0.000963  1066.418037     0.000000 
  55.600000  1025.000000     0.000976  1066.406465     0.000000 
  55.620000  1026.000000     0.000975  1066.394891     0.000000 
  55.640000  1056.000000     0.000947  1066.383316     0.000000 
  55.660000  1050.000000     0.000952  1066.371740     0.000000 
  55.680000  1041.000000     0.000961  1066.360162     0.000000 
  55.700000  1060.000000     0.000943  1066.348583     0.000000 
  55.720000  1053.000000     0.000950  1066.337002     0.000000 
  55.740000  1047.000000     0.000955  1066.325420     0.000000 
  55.760000  1054.000000     0.000949  1066.313837     0.000000 
  55.780000  1045.000000     0.000957  1066.302252     0.000000 
  55.800000  1068.000000     0.000936  1066.290665     0.000000 
  55.820000  1040.000000     0.000962  1066.279077     0.000000 
  55.840000  1048.000000     0.000954  1066.267488     0.000000 
  55.860000  1054.000000     0.000949  1066.255897     0.000000 
  55.880000  1034.000000     0.000967  1066.244304     0.000000 
  55.900000  1052.000000     0.000951  1066.232710     0.000000 
  55.920000  1059.000000     0.000944  1066.221114     0.000000 
  55.940000  1055.000000     0.000948  1066.209516     0.000000 
  55.960000  1071.000000     0.000934  1066.197917     0.000000 
  55.980000  1071.000000     0.000934  1066.186316     0.000000 
  56.000000  1064.000000     0.000940  1066.174714     0.000000 
  56.020000  1065.000000     0.000939  1066.163110     0.000000 
  56.040000  1048.000000     0.000954  1066.151503     0.000000 
  56.060000  1027.000000     0.000974  1066.139896     0.000000 
  56.080000  1066.000000     0.000938  1066.128286     0.000000 
  56.100000  1093.000000     0.000915  1066.116675     0.000000 
  56.120000  1025.000000     0.000976  1066.105061     0.000000 
  56.140000  1070.000000     0.000935  1066.093446     0.000000 
  56.160000  1043.000000     0.000959  1066.081829     0.000000 
  56.180000  1052.000000     0.000951  1066.070211     0.000000 
  56.200000  1009.000000     0.000991  1066.058590     0.000000 
  56.220000  1036.000000     0.000965  1066.046967     0.000000 
  56.240000  1024.000000     0.000977  1066.035343     0.000000 
  56.260000  1025.000000     0.000976  1066.023716     0.000000 
  56.280000  1000.000000     0.001000  1066.012088     0.000000 
  56.300000  1064.000000     0.000940  1066.000457     0.000000 
  56.320000  1077.000000     0.000929  1065.988825     0.000000 
  56.340000  1001.000000     0.000999  1065.977190     0.000000 
  56.360000  1022.000000     0.000978  1065.965553     0.000000 
  56.380000  1032.000000     0.000969  1065.953915     0.000000 
  56.400000  1074.000000     0.000931  1065.942274     0.000000 
  56.420000  1057.000000     0.000946  1065.930631     0.000000 
  56.440000  1055.000000     0.000948  1065.918986     0.000000 
  56.460000  1042.000000     0.000960  1065.907338     0.000000 
  56.480000  1111.000000     0.000900  1065.895689     0.000000 
  56.500000  1078.000000     0.000928  1065.884037     0.000000 
  56.520000  1081.000000     0.000925  1065.872384     0.000000 
  56.540000  1047.000000     0.000955  1065.860728     0.000000 
  56.560000  1040.000000     0.000962  1065.849069     0.000000 
  56.580000  1018.000000     0.000982  1065.837409     0.000000 
  56.600000  1041.000000     0.000961  1065.825746     0.000000 
  56.620000  1024.000000     0.000977  1065.814081     0.000000 
  56.640000  1002.000000     0.000998  1066.164726     0.000000 
  56.660000  1024.000000     0.000977  1066.164881     0.000000 
  56.680000  1069.000000     0.000935  1066.165623     0.000000 
  56.700000  1108.000000     0.000903  1066.166989     0.000000 
  56.720000  1087.000000     0.000920  1066.169025     0.000000 
  56.740000  1057.000000     0.000946  1066.171775     0.000000 
  56.760000  1023.000000     0.000978  1066.175292     0.000000 
  56.780000   996.000000     0.001004  1066.179631     0.000000 
  56.800000  1019.000000     0.000981  1066.184852     0.000000 
  56.820000  1064.000000     0.000940  1066.191022     0.000000 
  56.840000  1069.000000     0.000935  1066.198214     0.000000 
  56.860000  1036.000000     0.000965  1066.206507     0.000000 
  56.880000  1007.000000     0.000993  1066.215988     0.000000 
  56.900000  1045.000000     0.000957  1066.226755     0.000000 
  56.920000  1068.000000     0.000936  1066.238914     0.000000 
  56.940000  1084.000000     0.000923  1066.252583     0.000000 
  56.960000  1062.000000     0.000942  1066.267892     0.000000 
  56.980000  1062.000000     0.000942  1066.284986     0.000000 
  57.000000  1073.000000     0.000932  1066.304025     0.000000 
  57.020000  1058.000000     0.000945  1066.325190     0.000000 
  57.040000  1019.000000     0.000981  1066.348682     0.000000 
  57.060000  1010.000000     0.000990  1066.374725     0.000000 
  57.080000  1054.000000     0.000949  1066.403573     0.000000 
  57.100000  1062.000000     0.000942  1066.435510     0.000000 
  57.120000  1024.000000     0.000977  1066.470858     0.000000 
  57.140000  1062.000000     0.000942  1066.509983     0.000000 
  57.160000  1044.000000     0.000958  1066.911013     0.000000 
  57.180000  1062.000000     0.000942  1066.975553     0.000000 
  57.200000  1053.000000     0.000950  1067.046476     0.000000 
  57.220000  1047.000000     0.000955  1067.124520     0.000000 
  57.240000  1076.000000     0.000929  1067.210532     0.000000 
  57.260000   994.000000     0.001006  1067.305489     0.000000 
  57.280000  1047.000000     0.000955  1067.410524     0.000000 
  57.300000  1041.000000     0.000961  1067.526958     0.000000 
  57.320000  1049.000000     0.000953  1067.656333     0.000000 
  57.340000  1028.000000     0.000973  1067.800464     0.000000 
  57.360000  1047.000000     0.000955  1067.961500     0.000000 
  57.380000  1034.000000     0.000967  1068.141993     0.000000 
  57.400000  1052.000000     0.000951  1068.345003     0.000000 
  57.420000  1061.000000     0.000943  1068.574217     0.000000 
  57.440000  1040.000000     0.000962  1068.834113     0.000000 
  57.460000  1089.000000     0.000918  1069.130175     0.000000 
  57.480000  1101.000000     0.000908  1069.469179     0.000000 
  57.500000  1075.000000     0.000930  1069.859570     0.000000 
  57.520000  1078.000000     0.000928  1070.311994     0.000000 
  57.540000  1043.000000     0.000959  1070.840016     0.000000 
  57.560000  1051.000000     0.000951  1071.461146     0.000000 
  57.580000  1086.000000     0.000921  1072.198299     0.000000 
  57.600000  1100.000000     0.000909  1073.081931     0.000000 
  57.620000  1100.000000     0.000909  1074.153225     0.000000 
  57.640000  1079.000000     0.000927  1075.468958     0.000000 
  57.660000  1044.000000     0.000958  1077.109134     0.000000 
  57.680000  1096.000000     0.000912  1079.189317     0.000000 
  57.700000  1067.000000     0.000937  1081.881419     0.000000 
  57.720000  1040.000000     0.000962  1085.452317     0.000000 
  57.740000  1118.000000     0.000894  1090.356784     0.000000 
  57.760000  1151.000000     0.000869  1097.550534     0.000000 
  57.780000  1133.000000     0.000883  1109.592410     0.000000 
  57.800000  1125.000000     0.000889  1133.512115     0.000000 
  57.820000  1179.000000     0.000848  1184.574280     0.000000 
  57.840000  1369.000000     0.000730  1283.623815     0.000000 
  57.860000  1630.000000     0.000613  1437.465352     0.000000 
  57.880000  2191.000000     0.000456  1599.072318     0.000000 
  57.900000  3020.000000     0.000331  1638.741072     0.000000 
  57.920000  3036.000000     0.000329  1513.276670     0.000000 
  57.940000  2093.000000     0.000478  1353.517509     0.000000 
  57.960000  1445.000000     0.000692  1246.243518     0.000000 
  57.980000  1261.000000     0.000793  1206.571426     0.000000 
  58.000000  1287.000000     0.000777  1226.942463     0.000000 
  58.020000  1467.000000     0.000682  1290.472606     0.000000 
  58.040000  1755.000000     0.000570  1359.290207     0.000000 
  58.060000  2097.000000     0.000477  1362.748570     0.000000 
  58.080000  2051.000000     0.000488  1289.159346     0.000000 
  58.100000  1594.000000     0.000627  1204.763460     0.000000 
  58.120000  1268.000000     0.000789  1145.357635     0.000000 
  58.140000  1147.000000     0.000872  1112.701363     0.000000 
  58.160000  1185.000000     0.000844  1096.854187     0.000000 
  58.180000  1061.000000     0.000943  1088.876494     0.000000 
  58.200000  1051.000000     0.000951  1084.168626     0.000000 
  58.220000  1024.000000     0.000977  1080.964475     0.000000 
  58.240000  1050.000000     0.000952  1078.616419     0.000000 
  58.260000  1062.000000     0.000942  1076.832376     0.000000 
  58.280000  1049.000000     0.000953  1075.445515     0.000000 
  58.300000  1037.000000     0.000964  1074.348720     0.000000 
  58.320000  1041.000000     0.000961  1073.469719     0.000000 
  58.340000  1051.000000     0.000951  1072.758242     0.000000 
  58.360000  1017.000000     0.000983  1072.178464     0.000000 
  58.380000  1059.000000     0.000944  1071.704333     0.000000 
  58.400000   999.000000     0.001001  1071.316585     0.000000 
  58.420000  1015.000000     0.000985  1071.000795     0.000000 
  58.440000  1073.000000     0.000932  1070.746060     0.000000 
  58.460000  1025.000000     0.000976  1070.544100     0.000000 
  58.480000  1064.000000     0.000940  1070.388641     0.000000 
  58.500000  1046.000000     0.000956  1071.150588     0.000000 
  58.520000  1018.000000     0.000982  1071.115945     0.000000 
  58.540000  1039.000000     0.000962  1071.120102     0.000000 
  58.560000  1089.000000     0.000918  1071.161797     0.000000 
  58.580000  1094.000000     0.000914  1071.240586     0.000000 
  58.600000  1063.000000     0.000941  1071.356792     0.000000 
  58.620000  1112.000000     0.000899  1071.511486     0.000000 
  58.640000  1099.000000     0.000910  1071.706507     0.000000 
  58.660000  1057.000000     0.000946  1071.944510     0.000000 
  58.680000  1030.000000     0.000971  1072.229049     0.000000 
  58.700000  1044.000000     0.000958  1072.564710     0.000000 
  58.720000  1068.000000     0.000936  1072.957283     0.000000 
  58.740000  1079.000000     0.000927  1073.414000     0.000000 
  58.760000  1063.000000     0.000941  1073.943853     0.000000 
  58.780000  1062.000000     0.000942  1074.558018     0.000000 
  58.800000  1063.000000     0.000941  1075.270426     0.000000 
  58.820000  1082.000000     0.000924  1076.098524     0.000000 
  58.840000  1092.000000     0.000916  1077.064318     0.000000 
  58.860000  1074.000000     0.000931  1078.195805     0.000000 
  58.880000  1064.000000     0.000940  1079.528983     0.000000 
  58.900000  1069.000000     0.000935  1081.110683     0.000000 
  58.920000  1079.000000     0.000927  1083.002687     0.000000 
  58.940000  1110.000000     0.000901  1085.287764     0.000000 
  58.960000  1133.000000     0.000883  1087.733783     0.000000 
  58.980000  1061.000000     0.000943  1091.202457     0.000000 
  59.000000  1033.000000     0.000968  1095.556671     0.000000 
  59.020000  1059.000000     0.000944  1101.122991     0.000000 
  59.040000  1087.000000     0.000920  1108.394406     0.000000 
  59.060000  1113.000000     0.000898  1118.891154     0.000000 
  59.080000  1098.000000     0.000911  1132.610657     0.000000 
  59.100000  1155.000000     0.000866  1153.620908     0.000000 
  59.120000  1154.000000     0.000867  1191.196945     0.000000 
  59.140000  1266.000000     0.000790  1268.750792     0.000000 
  59.160000  1350.000000     0.000741  1429.174747     0.000000 
  59.180000  1586.000000     0.000631  1714.753462     0.000000 
  59.200000  2032.000000     0.000492  2105.293610     0.000000 
  59.220000  2774.000000     0.000360  2408.820202     0.000000 
  59.240000  3003.000000     0.000333  2325.378600     0.000000 
  59.260000  2268.000000     0.000441  1961.388886     0.000000 
  59.280000  1569.000000     0.000637  1622.792555     0.000000 
  59.300000  1326.000000     0.000754  1428.402280     0.000000 
  59.320000  1281.000000     0.000781  1383.124005     0.000000 
  59.340000  1390.000000     0.000719  1461.736003     0.000000 
  59.360000  1592.000000     0.000628  1624.384546     0.000000 
  59.380000  1920.000000     0.000521  1770.800452     0.000000 
  59.400000  2085.000000     0.000480  1739.324462     0.000000 
  59.420000  1775.000000     0.000563  1551.797006     0.000000 
  59.440000  1359.000000     0.000736  1362.681703     0.000000 
  59.460000  1193.000000     0.000838  1236.161288     0.000000 
  59.480000  1140.000000     0.000877  1168.259805     0.000000 
  59.500000  1076.000000     0.000929  1135.165454     0.000000 
  59.520000  1008.000000     0.000992  1117.983262     0.000000 
  59.540000  1039.000000     0.000962  1107.505919     0.000000 
  59.560000  1040.000000     0.000962  1100.244113     0.000000 
  59.580000  1065.000000     0.000939  1094.875881     0.000000 
  59.600000  1060.000000     0.000943  1091.503412     0.000000 
  59.620000  1065.000000     0.000939  1088.334193     0.000000 
  59.640000  1028.000000     0.000973  1085.827546     0.000000 
  59.660000  1044.000000     0.000958  1083.821808     0.000000 
  59.680000  1061.000000     0.000943  1082.204306     0.000000 
  59.700000  1046.000000     0.000956  1080.894768     0.000000 
  59.720000  1054.000000     0.000949  1079.835026     0.000000 
  59.740000  1052.000000     0.000951  1078.982423     0.000000 
  59.760000  1056.000000     0.000947  1078.305504     0.000000 
  59.780000  1072.000000     0.000933  1077.781135     0.000000 
  59.800000  1062.000000     0.000942  1077.392572     0.000000 
  59.820000  1081.000000     0.000925  1077.128152     0.000000 
  59.840000  1082.000000     0.000924  1076.980448     0.000000 
  59.860000  1073.000000     0.000932  1076.945740     0.000000 
  59.880000  1045.000000     0.000957  1077.023763     0.000000 
  59.900000  1095.000000     0.000913  1077.217680     0.000000 
  59.920000  1067.000000     0.000937  1077.534291     0.000000 
  59.940000  1047.000000     0.000955  1077.984482     0.000000 
  59.960000  1053.000000     0.000950  1078.583993     0.000000 
  59.980000  1029.000000     0.000972  1079.354565     0.000000 
  60.000000  1084.000000     0.000923  1080.325652     0.000000 
  60.020000  1037.000000     0.000964  1081.536908     0.000000 
  60.040000  1035.000000     0.000966  1083.041858     0.000000 
  60.060000  1071.000000     0.000934  1084.913358     0.000000 
  60.080000  1070.000000     0.000935  1087.251883     0.000000 
  60.100000  1061.000000     0.000943  1090.198388     0.000000 
  60.120000  1045.000000     0.000957  1093.954818     0.000000 
  60.140000  1055.000000     0.000948  1098.817910     0.000000 
  60.160000  1083.000000     0.000923  1105.238535     0.000000 
  60.180000  1089.000000     0.000918  1113.945315     0.000000 
  60.200000  1071.000000     0.000934  1126.301982     0.000000 
  60.220000  1097.000000     0.000912  1145.563261     0.000000 
  60.240000  1129.000000     0.000886  1180.647047     0.000000 
  60.260000  1199.000000     0.000834  1253.213686     0.000000 
  60.280000  1380.000000     0.000725  1400.630585     0.000000 
  60.300000  1603.000000     0.000624  1654.913535     0.000000 
  60.320000  2151.000000     0.000465  1988.718560     0.000000 
  60.340000  2805.000000     0.000357  2217.680184     0.000000 
  60.360000  3045.000000     0.000328  2105.201146     0.000000 
  60.380000  2321.000000     0.000431  1788.231452     0.000000 
  60.400000  1592.000000     0.000628  1512.243580     0.000000 
  60.420000  1317.000000     0.000759  1358.940112     0.000000 
  60.440000  1324.000000     0.000755  1325.563401     0.000000 
  60.460000  1391.000000     0.000719  1391.488024     0.000000 
  60.480000  1553.000000     0.000644  1527.983717     0.000000 
  60.500000  1816.000000     0.000551  1657.917638     0.000000 
  60.520000  2044.000000     0.000489  1643.073617     0.000000 
  60.540000  1829.000000     0.000547  1488.901406     0.000000 
  60.560000  1457.000000     0.000686  1326.419941     0.000000 
  60.580000  1281.000000     0.000781  1215.364832     0.000000 
  60.600000  1171.000000     0.000854  1154.707163     0.000000 
  60.620000  1097.000000     0.000912  1124.819582     0.000000 
  60.640000  1102.000000     0.000907  1109.301826     0.000000 
  60.660000  1099.000000     0.000910  1099.886382     0.000000 
  60.680000  1041.000000     0.000961  1093.371608     0.000000 
  60.700000  1051.000000     0.000951  1088.542889     0.000000 
  60.720000  1049.000000     0.000953  1084.832236     0.000000 
  60.740000  1047.000000     0.000955  1081.909372     0.000000 
  60.760000  1060.000000     0.000943  1079.560658     0.000000 
  60.780000  1087.000000     0.000920  1077.641188     0.000000 
  60.800000  1063.000000     0.000941  1076.049605     0.000000 
  60.820000  1059.000000     0.000944  1074.713189     0.000000 
  60.840000  1056.000000     0.000947  1073.578601     0.000000 
  60.860000  1043.000000     0.000959  1072.605945     0.000000 
  60.880000  1059.000000     0.000944  1071.764864     0.000000 
  60.900000  1044.000000     0.000958  1071.031900     0.000000 
  60.920000  1033.000000     0.000968  1070.388675     0.000000 
  60.940000  1089.000000     0.000918  1069.820612     0.000000 
  60.960000  1059.000000     0.000944  1069.316021     0.000000 
  60.980000  1029.000000     0.000972  1068.865429     0.000000 
  61.000000  1008.000000     0.000992  1068.461091     0.000000 
  61.020000  1089.000000     0.000918  1068.096619     0.000000 
  61.040000  1077.000000     0.000929  1067.766707     0.000000 
  61.060000  1061.000000     0.000943  1067.466910     0.000000 
  61.080000  1039.000000     0.000962  1067.193487     0.000000 
  61.100000  1102.000000     0.000907  1066.943265     0.000000 
  61.120000  1037.000000     0.000964  1066.713539     0.000000 
  61.140000   992.000000     0.001008  1066.501991     0.000000 
  61.160000  1034.000000     0.000967  1066.306627     0.000000 
  61.180000  1110.000000     0.000901  1066.125718     0.000000 
  61.200000  1066.000000     0.000938  1065.957765     0.000000 
  61.220000  1096.000000     0.000912  1065.801458     0.000000 
  61.240000  1008.000000     0.000992  1065.655651     0.000000 
  61.260000  1043.000000     0.000959  1065.519336     0.000000 
  61.280000  1057.000000     0.000946  1065.391625     0.000000 
  61.300000  1066.000000     0.000938  1065.271731     0.000000 
  61.320000  1098.000000     0.000911  1065.158955     0.000000 
  61.340000  1027.000000     0.000974  1065.052677     0.000000 
  61.360000  1080.000000     0.000926  1064.952343     0.000000 
  61.380000  1056.000000     0.000947  1064.857455     0.000000 
  61.400000  1056.000000     0.000947  1064.767568     0.000000 
  61.420000  1030.000000     0.000971  1064.515599     0.000000 
  61.440000  1060.000000     0.000943  1063.904882     0.000000 
  61.460000  1066.000000     0.000938  1063.856685     0.000000 
  61.480000  1033.000000     0.000968  1063.810341     0.000000 
  61.500000  1027.000000     0.000974  1063.765724     0.000000 
  61.520000  1073.000000     0.000932  1063.722716     0.000000 
  61.540000  1066.000000     0.000938  1063.681211     0.000000 
  61.560000  1012.000000     0.000988  1063.641111     0.000000 
  61.580000  1002.000000     0.000998  1063.602325     0.000000 
  61.600000   996.000000     0.001004  1063.564771     0.000000 
  61.620000  1012.000000     0.000988  1063.528371     0.000000 
  61.640000  1020.000000     0.000980  1062.774845     0.000000 
  61.660000  1042.000000     0.000960  1062.762179     0.000000 
  61.680000  1011.000000     0.000989  1062.749509     0.000000 
  61.700000  1022.000000     0.000978  1062.736834     0.000000 
  61.720000  1022.000000     0.000978  1062.724154     0.000000 
  61.740000  1047.000000     0.000955  1062.711468     0.000000 
  61.760000  1048.000000     0.000954  1062.698778     0.000000 
  61.780000  1026.000000     0.000975  1062.686082     0.000000 
  61.800000  1035.000000     0.000966  1062.673382     0.000000 
  61.820000  1079.000000     0.000927  1062.660676     0.000000 
  61.840000  1047.000000     0.000955  1062.647966     0.000000 
  61.860000  1016.000000     0.000984  1062.635250     0.000000 
  61.880000  1062.000000     0.000942  1062.622529     0.000000 
  61.900000  1043.000000     0.000959  1062.609804     0.000000 
  61.920000  1090.000000     0.000917  1062.597073     0.000000 
  61.940000  1052.000000     0.000951  1062.584337     0.000000 
  61.960000  1073.000000     0.000932  1062.571596     0.000000 
  61.980000  1116.000000     0.000896  1062.558850     0.000000 
  62.000000  1086.000000     0.000921  1062.546099     0.000000 
  62.020000  1025.000000     0.000976  1062.533343     0.000000 
  62.040000  1071.000000     0.000934  1062.520582     0.000000 
  62.060000  1063.000000     0.000941  1062.507816     0.000000 
  62.080000  1026.000000     0.000975  1062.495044     0.000000 
  62.100000  1010.000000     0.000990  1062.482268     0.000000 
  62.120000  1003.000000     0.000997  1062.469486     0.000000 
  62.140000  1027.000000     0.000974  1062.456700     0.000000 
  62.160000  1009.000000     0.000991  1062.443908     0.000000 
  62.180000   995.000000     0.001005  1062.431111     0.000000 
  62.200000  1037.000000     0.000964  1062.418310     0.000000 
  62.220000  1070.000000     0.000935  1062.405503     0.000000 
  62.240000  1033.000000     0.000968  1062.392691     0.000000 
  62.260000  1056.000000     0.000947  1062.379873     0.000000 
  62.280000  1006.000000     0.000994  1062.367051     0.000000 
  62.300000   980.000000     0.001020  1062.354224     0.000000 
  62.320000  1039.000000     0.000962  1062.341391     0.000000 
  62.340000  1058.000000     0.000945  1062.328554     0.000000 
  62.360000  1044.000000     0.000958  1062.315711     0.000000 
  62.380000  1015.000000     0.000985  1062.302863     0.000000 
  62.400000  1030.000000     0.000971  1062.290010     0.000000 
  62.420000  1050.000000     0.000952  1062.277152     0.000000 
  62.440000  1066.000000     0.000938  1062.264289     0.000000 
  62.460000  1055.000000     0.000948  1062.251421     0.000000 
  62.480000  1034.000000     0.000967  1062.238547     0.000000 
  62.500000  1032.000000     0.000969  1062.225669     0.000000 
  62.520000  1020.000000     0.000980  1062.212785     0.000000 
  62.540000  1035.000000     0.000966  1062.199896     0.000000 
  62.560000  1030.000000     0.000971  1062.187002     0.000000 
  62.580000  1056.000000     0.000947  1062.174103     0.000000 
  62.600000  1081.000000     0.000925  1062.161199     0.000000 
  62.620000  1029.000000     0.000972  1062.148290     0.000000 
  62.640000  1040.000000     0.000962  1062.135375     0.000000 
  62.660000  1042.000000     0.000960  1062.122456     0.000000 
  62.680000  1010.000000     0.000990  1062.109531     0.000000 
  62.700000  1023.000000     0.000978  1062.096601     0.000000 
  62.720000  1071.000000     0.000934  1062.083666     0.000000 
  62.740000  1067.000000     0.000937  1062.070726     0.000000 
  62.760000  1037.000000     0.000964  1062.057781     0.000000 
  62.780000  1066.000000     0.000938  1062.044830     0.000000 
  62.800000  1091.000000     0.000917  1062.031875     0.000000 
  62.820000  1080.000000     0.000926  1062.018914     0.000000 
  62.840000  1040.000000     0.000962  1062.005948     0.000000 
  62.860000  1046.000000     0.000956  1061.992977     0.000000 
  62.880000  1039.000000     0.000962  1061.980001     0.000000 
  62.900000  1046.000000     0.000956  1061.967020     0.000000 
  62.920000  1047.000000     0.000955  1061.954033     0.000000 
  62.940000  1020.000000     0.000980  1061.941042     0.000000 
  62.960000  1017.000000     0.000983  1061.928045     0.000000 
  62.980000  1010.000000     0.000990  1061.915043     0.000000 
  63.000000  1033.000000     0.000968  1061.902036     0.000000 
  63.020000  1029.000000     0.000972  1061.889024     0.000000 
  63.040000  1039.000000     0.000962  1061.876007     0.000000 
  63.060000  1080.000000     0.000926  1061.862984     0.000000 
  63.080000  1008.000000     0.000992  1061.849957     0.000000 
  63.100000  1024.000000     0.000977  1061.836924     0.000000 
  63.120000  1009.000000     0.000991  1061.823886     0.000000 
  63.140000  1062.000000     0.000942  1061.810843     0.000000 
  63.160000  1032.000000     0.000969  1061.797795     0.000000 
  63.180000  1020.000000     0.000980  1061.784741     0.000000 
  63.200000  1083.000000     0.000923  1061.771683     0.000000 
  63.220000  1052.000000     0.000951  1061.758619     0.000000 
  63.240000  1030.000000     0.000971  1061.745550     0.000000 
  63.260000  1080.000000     0.000926  1061.732476     0.000000 
  63.280000  1059.000000     0.000944  1061.719397     0.000000 
  63.300000  1057.000000     0.000946  1061.706313     0.000000 
  63.320000  1030.000000     0.000971  1061.693223     0.000000 
  63.340000  1001.000000     0.000999  1061.680129     0.000000 
  63.360000  1028.000000     0.000973  1061.667029     0.000000 
  63.380000  1022.000000     0.000978  1061.653924     0.000000 
  63.400000  1005.000000     0.000995  1061.640814     0.000000 
  63.420000  1012.000000     0.000988  1061.627699     0.000000 
  63.440000  1022.000000     0.000978  1061.614578     0.000000 
  63.460000  1002.000000     0.000998  1061.601453     0.000000 
  63.480000  1013.000000     0.000987  1061.588322     0.000000 
  63.500000  1007.000000     0.000993  1061.575187     0.000000 
  63.520000  1035.000000     0.000966  1061.562046     0.000000 
  63.540000  1009.000000     0.000991  1061.548900     0.000000 
  63.560000  1024.000000     0.000977  1061.535748     0.000000 
  63.580000  1004.000000     0.000996  1061.522592     0.000000 
  63.600000   980.000000     0.001020  1061.509431     0.000000 
  63.620000  1054.000000     0.000949  1061.496264     0.000000 
  63.640000  1055.000000     0.000948  1061.483092     0.000000 
  63.660000  1023.000000     0.000978  1061.469915     0.000000 
  63.680000  1025.000000     0.000976  1061.456733     0.000000 
  63.700000  1041.000000     0.000961  1061.443546     0.000000 
  63.720000  1024.000000     0.000977  1061.430354     0.000000 
  63.740000  1010.000000     0.000990  1061.417157     0.000000 
  63.760000  1037.000000     0.000964  1061.403954     0.000000 
  63.780000  1049.000000     0.000953  1061.390746     0.000000 
  63.800000  1030.000000     0.000971  1061.377534     0.000000 
  63.820000  1022.000000     0.000978  1061.364316     0.000000 
  63.840000  1019.000000     0.000981  1061.351093     0.000000 
  63.860000  1045.000000     0.000957  1061.337865     0.000000 
  63.880000  1052.000000     0.000951  1061.324631     0.000000 
  63.900000  1061.000000     0.000943  1061.311393     0.000000 
  63.920000  1051.000000     0.000951  1061.298149     0.000000 
  63.940000  1044.000000     0.000958  1061.284901     0.000000 
  63.960000  1017.000000     0.000983  1061.271647     0.000000 
  63.980000  1009.000000     0.000991  1061.258388     0.000000 
  64.000000   984.000000     0.001016  1061.245124     0.000000 
  64.020000  1016.000000     0.000984  1061.231855     0.000000 
  64.040000  1056.000000     0.000947  1061.218581     0.000000 
  64.060000  1012.000000     0.000988  1061.205302     0.000000 
  64.080000  1027.000000     0.000974  1061.192017     0.000000 
  64.100000  1082.000000     0.000924  1061.178728     0.000000 
  64.120000  1042.000000     0.000960  1061.165433     0.000000 
  64.140000  1012.000000     0.000988  1061.152134     0.000000 
  64.160000  1064.000000     0.000940  1061.138829     0.000000 
  64.180000  1041.000000     0.000961  1061.125519     0.000000 
  64.200000  1039.000000     0.000962  1061.112204     0.000000 
  64.220000  1072.000000     0.000933  1061.098884     0.000000 
  64.240000  1035.000000     0.000966  1061.085559     0.000000 
  64.260000  1032.000000     0.000969  1061.072229     0.000000 
  64.280000  1004.000000     0.000996  1061.058893     0.000000 
  64.300000  1016.000000     0.000984  1061.045553     0.000000 
  64.320000  1033.000000     0.000968  1061.032208     0.000000 
  64.340000  1019.000000     0.000981  1061.018857     0.000000 
  64.360000  1030.000000     0.000971  1061.005502     0.000000 
  64.380000  1055.000000     0.000948  1060.992141     0.000000 
  64.400000  1071.000000     0.000934  1060.978775     0.000000 
  64.420000  1065.000000     0.000939  1060.965405     0.000000 
  64.440000  1063.000000     0.000941  1060.952029     0.000000 
  64.460000  1049.000000     0.000953  1060.938648     0.000000 
  64.480000  1043.000000     0.000959  1060.925262     0.000000 
  64.500000  1035.000000     0.000966  1060.911871     0.000000 
  64.520000  1040.000000     0.000962  1060.898475     0.000000 
  64.540000  1034.000000     0.000967  1060.885074     0.000000 
  64.560000  1069.000000     0.000935  1060.871668     0.000000 
  64.580000  1066.000000     0.000938  1060.858257     0.000000 
  64.600000  1013.000000     0.000987  1060.844841     0.000000 
  64.620000  1045.000000     0.000957  1060.831420     0.000000 
  64.640000  1055.000000     0.000948  1060.817994     0.000000 
  64.660000  1059.000000     0.000944  1060.804563     0.000000 
  64.680000  1049.000000     0.000953  1060.791126     0.000000 
  64.700000  1041.000000     0.000961  1060.777685     0.000000 
  64.720000  1059.000000     0.000944  1060.764239     0.000000 
  64.740000  1073.000000     0.000932  1060.750788     0.000000 
  64.760000  1034.000000     0.000967  1062.525281     0.000000 
  64.780000  1037.000000     0.000964  1062.568828     0.000000 
  64.800000  1052.000000     0.000951  1062.615140     0.000000 
  64.820000  1054.000000     0.000949  1062.664398     0.000000 
  64.840000  1008.000000     0.000992  1062.716801     0.000000 
  64.860000  1005.000000     0.000995  1062.772563     0.000000 
  64.880000  1029.000000     0.000972  1062.831915     0.000000 
  64.900000  1074.000000     0.000931  1062.895113     0.000000 
  64.920000  1068.000000     0.000936  1062.962431     0.000000 
  64.940000  1026.000000     0.000975  1063.034171     0.000000 
  64.960000  1037.000000     0.000964  1063.110662     0.000000 
  64.980000  1070.000000     0.000935  1063.192265     0.000000 
  65.000000  1026.000000     0.000975  1063.279374     0.000000 
  65.020000  1036.000000     0.000965  1063.372423     0.000000 
  65.040000  1028.000000     0.000973  1063.471891     0.000000 
  65.060000  1053.000000     0.000950  1063.578302     0.000000 
  65.080000  1062.000000     0.000942  1063.692239     0.000000 
  65.100000  1017.000000     0.000983  1063.814344     0.000000 
  65.120000  1057.000000     0.000946  1063.945332     0.000000 
  65.140000  1075.000000     0.000930  1064.085996     0.000000 
  65.160000  1082.000000     0.000924  1064.237218     0.000000 
  65.180000  1042.000000     0.000960  1064.399985     0.000000 
  65.200000   981.000000     0.001019  1064.575403     0.000000 
  65.220000  1049.000000     0.000953  1064.764709     0.000000 
  65.240000  1089.000000     0.000918  1064.969298     0.000000 
  65.260000  1033.000000     0.000968  1065.190745     0.000000 
  65.280000  1051.000000     0.000951  1065.430832     0.000000 
  65.300000  1023.000000     0.000978  1065.691580     0.000000 
  65.320000  1038.000000     0.000963  1067.756042     0.000000 
  65.340000  1085.000000     0.000922  1068.146236     0.000000 
  65.360000  1068.000000     0.000936  1068.570687     0.000000 
  65.380000  1054.000000     0.000949  1069.033413     0.000000 
  65.400000  1068.000000     0.000936  1069.539040     0.000000 
  65.420000  1038.000000     0.000963  1070.092921     0.000000 
  65.440000  1060.000000     0.000943  1070.701274     0.000000 
  65.460000  1041.000000     0.000961  1071.371360     0.000000 
  65.480000  1052.000000     0.000951  1072.111698     0.000000 
  65.500000  1073.000000     0.000932  1072.932342     0.000000 
  65.520000  1051.000000     0.000951  1073.845219     0.000000 
  65.540000  1052.000000     0.000951  1074.864574     0.000000 
  65.560000  1073.000000     0.000932  1076.007532     0.000000 
  65.580000  1056.000000     0.000947  1077.294828     0.000000 
  65.600000  1054.000000     0.000949  1078.751766     0.000000 
  65.620000  1053.000000     0.000950  1080.409492     0.000000 
  65.640000  1043.000000     0.000959  1082.306692     0.000000 
  65.660000  1039.000000     0.000962  1084.491903     0.000000 
  65.680000  1038.000000     0.000963  1087.026703     0.000000 
  65.700000  1072.000000     0.000933  1089.990155     0.000000 
  65.720000  1106.000000     0.000904  1093.485144     0.000000 
  65.740000  1127.000000     0.000887  1097.647550     0.000000 
  65.760000  1087.000000     0.000920  1102.659810     0.000000 
  65.780000  1103.000000     0.000907  1108.771428     0.000000 
  65.800000  1092.000000     0.000916  1116.330786     0.000000 
  65.820000  1092.000000     0.000916  1125.835868     0.000000 
  65.840000  1109.000000     0.000902  1138.017918     0.000000 
  65.860000  1131.000000     0.000884  1153.987095     0.000000 
  65.880000  1147.000000     0.000872  1175.523230     0.000000 
  65.900000  1137.000000     0.000880  1205.845851     0.000000 
  65.920000  1168.000000     0.000856  1252.148923     0.000000 
  65.940000  1229.000000     0.000814  1333.084802     0.000000 
  65.960000  1336.000000     0.000749  1493.075876     0.000000 
  65.980000  1690.000000     0.000592  1809.818296     0.000000 
  66.000000  2059.000000     0.000486  2357.375677     0.000000 
  66.020000  2925.000000     0.000342  3085.022188     0.000000 
  66.040000  4196.000000     0.000238  3580.040504     0.000000 
  66.060000  4529.000000     0.000221  3300.324033     0.000000 
  66.080000  3238.000000     0.000309  2594.747257     0.000000 
  66.100000  2003.000000     0.000499  2002.078278     0.000000 
  66.120000  1549.000000     0.000646  1659.348925     0.000000 
  66.140000  1434.000000     0.000697  1529.763161     0.000000 
  66.160000  1450.000000     0.000690  1564.609709     0.000000 
  66.180000  1604.000000     0.000623  1750.807668     0.000000 
  66.200000  1928.000000     0.000519  2066.550352     0.000000 
  66.220000  2466.000000     0.000406  2354.884965     0.000000 
  66.240000  2807.000000     0.000356  2306.600222     0.000000 
  66.260000  2375.000000     0.000421  1959.390054     0.000000 
  66.280000  1754.000000     0.000570  1615.663880     0.000000 
  66.300000  1351.000000     0.000740  1388.407131     0.000000 
  66.320000  1190.000000     0.000840  1264.719844     0.000000 
  66.340000  1195.000000     0.000837  1201.977733     0.000000 
  66.360000  1105.000000     0.000905  1167.811827     0.000000 
  66.380000  1068.000000     0.000936  1146.364282     0.000000 
  66.400000  1091.000000     0.000917  1131.358352     0.000000 
  66.420000  1111.000000     0.000900  1120.236366     0.000000 
  66.440000  1087.000000     0.000920  1111.716560     0.000000 
  66.460000  1024.000000     0.000977  1105.032899     0.000000 
  66.480000  1043.000000     0.000959  1099.687689     0.000000 
  66.500000  1062.000000     0.000942  1095.343741     0.000000 
  66.520000  1071.000000     0.000934  1091.765698     0.000000 
  66.540000  1047.000000     0.000955  1088.785095     0.000000 
  66.560000  1037.000000     0.000964  1086.278696     0.000000 
  66.580000  1074.000000     0.000931  1084.154620     0.000000 
  66.600000  1084.000000     0.000923  1082.343232     0.000000 
  66.620000  1114.000000     0.000898  1080.790992     0.000000 
  66.640000  1080.000000     0.000926  1079.456240     0.000000 
  66.660000  1042.000000     0.000960  1078.306230     0.000000 
  66.680000  1054.000000     0.000949  1077.315019     0.000000 
  66.700000  1080.000000     0.000926  1076.461936     0.000000 
  66.720000  1053.000000     0.000950  1075.730467     0.000000 
  66.740000  1025.000000     0.000976  1075.107424     0.000000 
  66.760000  1091.000000     0.000917  1075.725261     0.000000 
  66.780000  1040.000000     0.000962  1075.562561     0.000000 
  66.800000  1065.000000     0.000939  1075.276241     0.000000 
  66.820000  1063.000000     0.000941  1075.073401     0.000000 
  66.840000  1065.000000     0.000939  1074.951381     0.000000 
  66.860000  1024.000000     0.000977  1074.908976     0.000000 
  66.880000  1060.000000     0.000943  1074.946404     0.000000 
  66.900000  1052.000000     0.000951  1075.065316     0.000000 
  66.920000  1034.000000     0.000967  1075.268871     0.000000 
  66.940000  1055.000000     0.000948  1075.561871     0.000000 
  66.960000  1056.000000     0.000947  1075.950963     0.000000 
  66.980000  1091.000000     0.000917  1076.444931     0.000000 
  67.000000  1110.000000     0.000901  1077.055098     0.000000 
  67.020000  1074.000000     0.000931  1077.795861     0.000000 
  67.040000  1070.000000     0.000935  1078.685424     0.000000 
  67.060000  1043.000000     0.000959  1079.746772     0.000000 
  67.080000  1057.000000     0.000946  1081.009007     0.000000 
  67.100000  1037.000000     0.000964  1082.509164     0.000000 
  67.120000  1019.000000     0.000981  1084.294738     0.000000 
  67.140000  1044.000000     0.000958  1086.427231     0.000000 
  67.160000  1057.000000     0.000946  1087.293230     0.000000 
  67.180000  1069.000000     0.000935  1090.458065     0.000000 
  67.200000  1084.000000     0.000923  1094.297559     0.000000 
  67.220000  1077.000000     0.000929  1099.010478     0.000000 
  67.240000  1069.000000     0.000935  1104.875443     0.000000 
  67.260000  1094.000000     0.000914  1112.292406     0.000000 
  67.280000  1075.000000     0.000930  1121.851415     0.000000 
  67.300000  1095.000000     0.000913  1134.452940     0.000000 
  67.320000  1105.000000     0.000905  1151.548620     0.000000 
  67.340000  1168.000000     0.000856  1174.026225     0.000000 
  67.360000  1152.000000     0.000868  1211.321372     0.000000 
  67.380000  1176.000000     0.000850  1276.732494     0.000000 
  67.400000  1266.000000     0.000790  1405.583767     0.000000 
  67.420000  1416.000000     0.000706  1658.007311     0.000000 
  67.440000  1673.000000     0.000598  2087.732313     0.000000 
  67.460000  2251.000000     0.000444  2640.030522     0.000000 
  67.480000  3025.000000     0.000331  2956.641523     0.000000 
  67.500000  3268.000000     0.000306  2668.383995     0.000000 
  67.520000  2640.000000     0.000379  2129.409357     0.000000 
  67.540000  1874.000000     0.000534  1710.999859     0.000000 
  67.560000  1487.000000     0.000672  1479.035222     0.000000 
  67.580000  1339.000000     0.000747  1392.807695     0.000000 
  67.600000  1276.000000     0.000784  1415.539254     0.000000 
  67.620000  1342.000000     0.000745  1543.315130     0.000000 
  67.640000  1613.000000     0.000620  1771.644436     0.000000 
  67.660000  1892.000000     0.000529  2007.822919     0.000000 
  67.680000  2153.000000     0.000464  2012.206074     0.000000 
  67.700000  2045.000000     0.000489  1762.485294     0.000000 
  67.720000  1631.000000     0.000613  1497.025138     0.000000 
  67.740000  1336.000000     0.000749  1318.081762     0.000000 
  67.760000  1222.000000     0.000818  1219.544869     0.000000 
  67.780000  1120.000000     0.000893  1169.233651     0.000000 
  67.800000  1078.000000     0.000928  1141.845941     0.000000 
  67.820000  1030.000000     0.000971  1124.728006     0.000000 
  67.840000  1057.000000     0.000946  1112.803373     0.000000 
  67.860000  1094.000000     0.000914  1103.991523     0.000000 
  67.880000  1082.000000     0.000924  1097.251670     0.000000 
  67.900000  1085.000000     0.000922  1091.965008     0.000000 
  67.920000  1080.000000     0.000926  1087.731656     0.000000 
  67.940000  1087.000000     0.000920  1084.281958     0.000000 
  67.960000  1054.000000     0.000949  1081.428409     0.000000 
  67.980000  1072.000000     0.000933  1079.037184     0.000000 
  68.000000  1086.000000     0.000921  1077.666985     0.000000 
  68.020000  1049.000000     0.000953  1075.953389     0.000000 
  68.040000  1070.000000     0.000935  1074.477477     0.000000 
  68.060000  1032.000000     0.000969  1073.196803     0.000000 
  68.080000  1055.000000     0.000948  1072.078223     0.000000 
  68.100000  1019.000000     0.000981  1071.095534     0.000000 
  68.120000  1040.000000     0.000962  1070.227783     0.000000 
  68.140000  1034.000000     0.000967  1069.458051     0.000000 
  68.160000  1016.000000     0.000984  1068.772546     0.000000 
  68.180000  1041.000000     0.000961  1068.159942     0.000000 
  68.200000  1055.000000     0.000948  1067.610864     0.000000 
  68.220000  1062.000000     0.000942  1067.117506     0.000000 
  68.240000  1037.000000     0.000964  1066.673333     0.000000 
  68.260000  1055.000000     0.000948  1066.272847     0.000000 
  68.280000  1065.000000     0.000939  1065.911403     0.000000 
  68.300000  1073.000000     0.000932  1065.585071     0.000000 
  68.320000  1060.000000     0.000943  1065.290516     0.000000 
  68.340000  1064.000000     0.000940  1065.024908     0.000000 
  68.360000  1052.000000     0.000951  1064.785848     0.000000 
  68.380000  1016.000000     0.000984  1064.571310     0.000000 
  68.400000  1037.000000     0.000964  1064.379596     0.000000 
  68.420000  1038.000000     0.000963  1064.209293     0.000000 
  68.440000  1059.000000     0.000944  1064.059249     0.000000 
  68.460000  1060.000000     0.000943  1063.928546     0.000000 
  68.480000  1065.000000     0.000939  1063.816488     0.000000 
  68.500000  1054.000000     0.000949  1063.722586     0.000000 
  68.520000  1047.000000     0.000955  1063.646552     0.000000 
  68.540000  1017.000000     0.000983  1063.588302     0.000000 
  68.560000  1008.000000     0.000992  1063.547953     0.000000 
  68.580000  1038.000000     0.000963  1064.198414     0.000000 
  68.600000  1023.000000     0.000978  1062.924050     0.000000 
  68.620000  1030.000000     0.000971  1063.028156     0.000000 
  68.640000  1041.000000     0.000961  1063.152107     0.000000 
  68.660000  1071.000000     0.000934  1063.297815     0.000000 
  68.680000  1055.000000     0.000948  1063.467568     0.000000 
  68.700000  1088.000000     0.000919  1063.664095     0.000000 
  68.720000  1076.000000     0.000929  1063.890659     0.000000 
  68.740000  1046.000000     0.000956  1064.151171     0.000000 
  68.760000  1087.000000     0.000920  1064.450335     0.000000 
  68.780000  1095.000000     0.000913  1063.461570     0.000000 
  68.800000  1040.000000     0.000962  1063.896353     0.000000 
  68.820000  1095.000000     0.000913  1064.389063     0.000000 
  68.840000  1100.000000     0.000909  1064.950221     0.000000 
  68.860000  1069.000000     0.000935  1065.592872     0.000000 
  68.880000  1049.000000     0.000953  1066.333346     0.000000 
  68.900000  1079.000000     0.000927  1067.192308     0.000000 
  68.920000  1056.000000     0.000947  1068.196223     0.000000 
  68.940000  1024.000000     0.000977  1069.379430     0.000000 
  68.960000  1060.000000     0.000943  1070.787134     0.000000 
  68.980000  1119.000000     0.000894  1072.479814     0.000000 
  69.000000  1099.000000     0.000910  1074.539856     0.000000 
  69.020000  1111.000000     0.000900  1077.081792     0.000000 
  69.040000  1037.000000     0.000964  1080.268527     0.000000 
  69.060000  1029.000000     0.000972  1084.337901     0.000000 
  69.080000  1089.000000     0.000918  1089.647861     0.000000 
  69.100000  1097.000000     0.000912  1096.759184     0.000000 
  69.120000  1071.000000     0.000934  1106.617284     0.000000 
  69.140000  1088.000000     0.000919  1121.081448     0.000000 
  69.160000  1109.000000     0.000902  1144.605564     0.000000 
  69.180000  1136.000000     0.000880  1188.342466     0.000000 
  69.200000  1260.000000     0.000794  1275.175896     0.000000 
  69.220000  1361.000000     0.000735  1435.628869     0.000000 
  69.240000  1674.000000     0.000597  1677.808852     0.000000 
  69.260000  2173.000000     0.000460  1902.772985     0.000000 
  69.280000  2510.000000     0.000398  1876.215429     0.000000 
  69.300000  2109.000000     0.000474  1636.968187     0.000000 
  69.320000  1580.000000     0.000633  1413.853183     0.000000 
  69.340000  1314.000000     0.000761  1277.616476     0.000000 
  69.360000  1259.000000     0.000794  1214.384892     0.000000 
  69.380000  1236.000000     0.000809  1200.121939     0.000000 
  69.400000  1207.000000     0.000829  1226.615992     0.000000 
  69.420000  1279.000000     0.000782  1299.399049     0.000000 
  69.440000  1407.000000     0.000711  1414.687269     0.000000 
  69.460000  1599.000000     0.000625  1509.154386     0.000000 
  69.480000  1733.000000     0.000577  1468.466978     0.000000 
  69.500000  1565.000000     0.000639  1339.068419     0.000000 
  69.520000  1333.000000     0.000750  1227.617123     0.000000 
  69.540000  1194.000000     0.000838  1159.175915     0.000000 
  69.560000  1102.000000     0.000907  1123.033557     0.000000 
  69.580000  1073.000000     0.000932  1104.261749     0.000000 
  69.600000  1069.000000     0.000935  1093.425607     0.000000 
  69.620000  1110.000000     0.000901  1086.304717     0.000000 
  69.640000  1060.000000     0.000943  1081.220169     0.000000 
  69.660000  1063.000000     0.000941  1077.419638     0.000000 
  69.680000  1066.000000     0.000938  1074.491348     0.000000 
  69.700000  1021.000000     0.000979  1072.180548     0.000000 
  69.720000  1001.000000     0.000999  1070.320240     0.000000 
  69.740000  1023.000000     0.000978  1068.796922     0.000000 
  69.760000  1050.000000     0.000952  1067.531179     0.000000 
  69.780000  1071.000000     0.000934  1066.466023     0.000000 
  69.800000  1044.000000     0.000958  1065.559644     0.000000 
  69.820000  1057.000000     0.000946  1064.780765     0.000000 
  69.840000  1041.000000     0.000961  1064.105580     0.000000 
  69.860000  1012.000000     0.000988  1063.515685     0.000000 
  69.880000  1002.000000     0.000998  1062.996658     0.000000 
  69.900000  1062.000000     0.000942  1062.537053     0.000000 
  69.920000  1061.000000     0.000943  1062.127685     0.000000 
  69.940000  1090.000000     0.000917  1061.761108     0.000000 
  69.960000  1039.000000     0.000962  1061.431228     0.000000 
  69.980000  1019.000000     0.000981  1061.133017     0.000000 
  70.000000  1028.000000     0.000973  1060.862292     0.000000 
  70.020000  1024.000000     0.000977  1060.615549     0.000000 
  70.040000  1069.000000     0.000935  1060.389835     0.000000 
  70.060000  1069.000000     0.000935  1060.182643     0.000000 
  70.080000  1070.000000     0.000935  1059.991834     0.000000 
  70.100000  1088.000000     0.000919  1059.815574     0.000000 
  70.120000  1070.000000     0.000935  1059.652281     0.000000 
  70.140000  1030.000000     0.000971  1059.500585     0.000000 
  70.160000  1005.000000     0.000995  1059.359296     0.000000 
  70.180000  1039.000000     0.000962  1059.268248     0.000000 
  70.200000  1048.000000     0.000954  1059.146139     0.000000 
  70.220000  1106.000000     0.000904  1059.031750     0.000000 
  70.240000  1100.000000     0.000909  1058.924377     0.000000 
  70.260000  1053.000000     0.000950  1058.823399     0.000000 
  70.280000  1059.000000     0.000944  1058.728262     0.000000 
  70.300000  1001.000000     0.000999  1058.638477     0.000000 
  70.320000  1046.000000     0.000956  1058.553606     0.000000 
  70.340000  1029.000000     0.000972  1058.473259     0.000000 
  70.360000  1020.000000     0.000980  1058.397087     0.000000 
  70.380000  1069.000000     0.000935  1057.694521     0.000000 
  70.400000  1052.000000     0.000951  1057.652422     0.000000 
  70.420000  1026.000000     0.000975  1057.612002     0.000000 
  70.440000  1012.000000     0.000988  1057.573169     0.000000 
  70.460000  1028.000000     0.000973  1057.535839     0.000000 
  70.480000  1034.000000     0.000967  1057.499942     0.000000 
  70.500000  1019.000000     0.000981  1057.465411     0.000000 
  70.520000  1016.000000     0.000984  1057.432190     0.000000 
  70.540000  1067.000000     0.000937  1057.400232     0.000000 
  70.560000  1109.000000     0.000902  1056.736943     0.000000 
  70.580000  1062.000000     0.000942  1056.726515     0.000000 
  70.600000  1017.000000     0.000983  1056.716395     0.000000 
  70.620000  1023.000000     0.000978  1056.706616     0.000000 
  70.640000  1047.000000     0.000955  1056.697213     0.000000 
  70.660000  1014.000000     0.000986  1056.688227     0.000000 
  70.680000  1056.000000     0.000947  1056.679704     0.000000 
  70.700000  1052.000000     0.000951  1056.671697     0.000000 
  70.720000  1042.000000     0.000960  1056.664267     0.000000 
  70.740000  1053.000000     0.000950  1056.697808     0.000000 
  70.760000   985.000000     0.001015  1056.693655     0.000000 
  70.780000  1061.000000     0.000943  1056.690462     0.000000 
  70.800000  1090.000000     0.000917  1056.688349     0.000000 
  70.820000  1097.000000     0.000912  1056.687460     0.000000 
  70.840000  1061.000000     0.000943  1056.687962     0.000000 
  70.860000  1072.000000     0.000933  1056.690053     0.000000 
  70.880000  1097.000000     0.000912  1056.693965     0.000000 
  70.900000  1125.000000     0.000889  1056.699978     0.000000 
  70.920000  1084.000000     0.000923  1056.708425     0.000000 
  70.940000  1042.000000     0.000960  1056.719709     0.000000 
  70.960000  1045.000000     0.000957  1056.734323     0.000000 
  70.980000  1028.000000     0.000973  1056.752869     0.000000 
  71.000000   993.000000     0.001007  1056.776095     0.000000 
  71.020000  1049.000000     0.000953  1056.804937     0.000000 
  71.040000  1043.000000     0.000959  1056.840577     0.000000 
  71.060000  1041.000000     0.000961  1056.884531     0.000000 
  71.080000  1045.000000     0.000957  1056.938762     0.000000 
  71.100000  1086.000000     0.000921  1057.005853     0.000000 
  71.120000  1006.000000     0.000994  1057.937454     0.000000 
  71.140000   995.000000     0.001005  1058.070436     0.000000 
  71.160000  1028.000000     0.000973  1058.232429     0.000000 
  71.180000  1034.000000     0.000967  1058.432819     0.000000 
  71.200000  1055.000000     0.000948  1058.685253     0.000000 
  71.220000  1085.000000     0.000922  1059.010203     0.000000 
  71.240000  1067.000000     0.000937  1059.439517     0.000000 
  71.260000  1056.000000     0.000947  1060.025542     0.000000 
  71.280000  1076.000000     0.000929  1060.864348     0.000000 
  71.300000  1062.000000     0.000942  1062.167985     0.000000 
  71.320000  1040.000000     0.000962  1064.463511     0.000000 
  71.340000  1062.000000     0.000942  1068.922870     0.000000 
  71.360000  1063.000000     0.000941  1077.388800     0.000000 
  71.380000  1096.000000     0.000912  1091.048722     0.000000 
  71.400000  1142.000000     0.000876  1105.423760     0.000000 
  71.420000  1121.000000     0.000892  1105.590254     0.000000 
  71.440000  1120.000000     0.000893  1091.583284     0.000000 
  71.460000  1089.000000     0.000918  1078.353492     0.000000 
  71.480000  1042.000000     0.000960  1070.411005     0.000000 
  71.500000  1068.000000     0.000936  1066.653997     0.000000 
  71.520000  1061.000000     0.000943  1065.451173     0.000000 
  71.540000  1024.000000     0.000977  1066.121307     0.000000 
  71.560000  1042.000000     0.000960  1068.997816     0.000000 
  71.580000  1058.000000     0.000945  1074.680854     0.000000 
  71.600000  1079.000000     0.000927  1081.983242     0.000000 
  71.620000  1099.000000     0.000910  1084.297884     0.000000 
  71.640000  1071.000000     0.000934  1078.151536     0.000000 
  71.660000  1069.000000     0.000935  1070.827971     0.000000 
  71.680000  1054.000000     0.000949  1066.843596     0.000000 
  71.700000  1051.000000     0.000951  1064.337347     0.000000 
  71.720000  1060.000000     0.000943  1063.163179     0.000000 
  71.740000  1036.000000     0.000965  1062.633194     0.000000 
  71.760000  1016.000000     0.000984  1062.417441     0.000000 
  71.780000  1021.000000     0.000979  1062.384260     0.000000 
  71.800000  1002.000000     0.000998  1062.478976     0.000000 
  71.820000  1010.000000     0.000990  1062.675721     0.000000 
  71.840000  1059.000000     0.000944  1062.962121     0.000000 
  71.860000  1016.000000     0.000984  1063.333843     0.000000 
  71.880000  1108.000000     0.000903  1063.792210     0.000000 
  71.900000  1088.000000     0.000919  1064.343142     0.000000 
  71.920000  1056.000000     0.000947  1064.996870     0.000000 
  71.940000  1024.000000     0.000977  1065.768198     0.000000 
  71.960000  1052.000000     0.000951  1066.677260     0.000000 
  71.980000  1040.000000     0.000962  1067.750826     0.000000 
  72.000000  1016.000000     0.000984  1069.024295     0.000000 
  72.020000  1041.000000     0.000961  1070.544676     0.000000 
  72.040000  1064.000000     0.000940  1072.375011     0.000000 
  72.060000  1094.000000     0.000914  1074.608606     0.000000 
  72.080000  1069.000000     0.000935  1077.349344     0.000000 
  72.100000  1083.000000     0.000923  1080.772365     0.000000 
  72.120000  1071.000000     0.000934  1085.120805     0.000000 
  72.140000  1068.000000     0.000936  1090.757001     0.000000 
  72.160000  1099.000000     0.000910  1098.239189     0.000000 
  72.180000  1104.000000     0.000906  1108.465396     0.000000 
  72.200000  1095.000000     0.000913  1122.992268     0.000000 
  72.220000  1095.000000     0.000913  1144.943935     0.000000 
  72.240000  1140.000000     0.000877  1181.758285     0.000000 
  72.260000  1231.000000     0.000812  1251.260243     0.000000 
  72.280000  1437.000000     0.000696  1387.159870     0.000000 
  72.300000  1704.000000     0.000587  1627.182293     0.000000 
  72.320000  2247.000000     0.000445  1943.339263     0.000000 
  72.340000  3033.000000     0.000330  2074.665201     0.000000 
  72.360000  3282.000000     0.000305  1838.780360     0.000000 
  72.380000  2671.000000     0.000374  1541.208119     0.000000 
  72.400000  1886.000000     0.000530  1348.121417     0.000000 
  72.420000  1471.000000     0.000680  1250.250235     0.000000 
  72.440000  1356.000000     0.000737  1210.267213     0.000000 
  72.460000  1282.000000     0.000780  1206.342155     0.000000 
  72.480000  1256.000000     0.000796  1238.533305     0.000000 
  72.500000  1365.000000     0.000733  1321.221557     0.000000 
  72.520000  1556.000000     0.000643  1460.325139     0.000000 
  72.540000  1854.000000     0.000539  1582.794509     0.000000 
  72.560000  2122.000000     0.000471  1529.151808     0.000000 
  72.580000  2090.000000     0.000478  1368.932194     0.000000 
  72.600000  1678.000000     0.000596  1242.051190     0.000000 
  72.620000  1358.000000     0.000736  1168.629117     0.000000 
  72.640000  1181.000000     0.000847  1130.413451     0.000000 
  72.660000  1092.000000     0.000916  1109.839704     0.000000 
  72.680000  1091.000000     0.000917  1097.423082     0.000000 
  72.700000  1056.000000     0.000947  1089.070849     0.000000 
  72.720000  1043.000000     0.000959  1083.082878     0.000000 
  72.740000  1054.000000     0.000949  1078.616416     0.000000 
  72.760000  1080.000000     0.000926  1075.184800     0.000000 
  72.780000  1084.000000     0.000923  1072.483816     0.000000 
  72.800000  1056.000000     0.000947  1070.314499     0.000000 
  72.820000  1028.000000     0.000973  1068.542152     0.000000 
  72.840000  1049.000000     0.000953  1067.072880     0.000000 
  72.860000  1040.000000     0.000962  1065.839549     0.000000 
  72.880000  1062.000000     0.000942  1064.793102     0.000000 
  72.900000  1042.000000     0.000960  1063.897008     0.000000 
  72.920000  1019.000000     0.000981  1063.123637     0.000000 
  72.940000  1081.000000     0.000925  1062.451828     0.000000 
  72.960000  1040.000000     0.000962  1061.865240     0.000000 
  72.980000  1026.000000     0.000975  1061.351217     0.000000 
  73.000000  1034.000000     0.000967  1060.900036     0.000000 
  73.020000  1032.000000     0.000969  1060.504419     0.000000 
  73.040000   997.000000     0.001003  1060.159303     0.000000 
  73.060000   970.000000     0.001031  1059.861865     0.000000 
  73.080000  1029.000000     0.000972  1059.611904     0.000000 
  73.100000  1052.000000     0.000951  1059.412817     0.000000 
  73.120000  1064.000000     0.000940  1059.273889     0.000000 
  73.140000  1068.000000     0.000936  1059.216558     0.000000 
  73.160000  1078.000000     0.000928  1059.293631     0.000000 
  73.180000  1045.000000     0.000957  1059.636957     0.000000 
  73.200000  1026.000000     0.000975  1060.518238     0.000000 
  73.220000  1019.000000     0.000981  1062.299551     0.000000 
  73.240000   994.000000     0.001006  1064.914852     0.000000 
  73.260000  1015.000000     0.000985  1066.233925     0.000000 
  73.280000  1040.000000     0.000962  1064.159526     0.000000 
  73.300000  1051.000000     0.000951  1061.374704     0.000000 
  73.320000  1056.000000     0.000947  1059.533891     0.000000 
  73.340000  1081.000000     0.000925  1058.545386     0.000000 
  73.360000  1062.000000     0.000942  1058.061689     0.000000 
  73.380000  1039.000000     0.000962  1057.875503     0.000000 
  73.400000  1023.000000     0.000978  1057.962831     0.000000 
  73.420000  1040.000000     0.000962  1057.620581     0.000000 
  73.440000  1049.000000     0.000953  1058.656533     0.000000 
  73.460000  1032.000000     0.000969  1059.883386     0.000000 
  73.480000  1013.000000     0.000987  1059.835715     0.000000 
  73.500000  1005.000000     0.000995  1058.442009     0.000000 
  73.520000  1040.000000     0.000962  1057.181068     0.000000 
  73.540000  1050.000000     0.000952  1056.414989     0.000000 
  73.560000  1046.000000     0.000956  1055.994216     0.000000 
  73.580000   990.000000     0.001010  1054.939692     0.000000 
  73.600000  1003.000000     0.000997  1054.805217     0.000000 
  73.620000  1046.000000     0.000956  1054.711218     0.000000 
  73.640000  1045.000000     0.000957  1054.640391     0.000000 
  73.660000  1029.000000     0.000972  1054.584256     0.000000 
  73.680000  1025.000000     0.000976  1054.537992     0.000000 
  73.700000  1089.000000     0.000918  1054.498623     0.000000 
  73.720000  1043.000000     0.000959  1054.464226     0.000000 
  73.740000  1000.000000     0.001000  1054.433513     0.000000 
  73.760000  1046.000000     0.000956  1054.405591     0.000000 
  73.780000  1049.000000     0.000953  1054.379829     0.000000 
  73.800000  1038.000000     0.000963  1054.355765     0.000000 
  73.820000  1065.000000     0.000939  1054.333058     0.000000 
  73.840000  1055.000000     0.000948  1054.311450     0.000000 
  73.860000  1043.000000     0.000959  1054.290742     0.000000 
  73.880000  1042.000000     0.000960  1054.270779     0.000000 
  73.900000  1040.000000     0.000962  1054.251439     0.000000 
  73.920000  1049.000000     0.000953  1054.232625     0.000000 
  73.940000  1009.000000     0.000991  1054.294825     0.000000 
  73.960000  1064.000000     0.000940  1054.279754     0.000000 
  73.980000  1070.000000     0.000935  1054.265173     0.000000 
  74.000000  1054.000000     0.000949  1054.251051     0.000000 
  74.020000  1077.000000     0.000929  1054.237365     0.000000 
  74.040000  1064.000000     0.000940  1054.224097     0.000000 
  74.060000  1053.000000     0.000950  1054.211237     0.000000 
  74.080000  1036.000000     0.000965  1054.198782     0.000000 
  74.100000  1068.000000     0.000936  1054.186731     0.000000 
  74.120000  1059.000000     0.000944  1054.175089     0.000000 
  74.140000  1036.000000     0.000965  1054.163866     0.000000 
  74.160000  1076.000000     0.000929  1054.153076     0.000000 
  74.180000  1032.000000     0.000969  1054.142738     0.000000 
  74.200000  1020.000000     0.000980  1054.132875     0.000000 
  74.220000  1034.000000     0.000967  1054.123515     0.000000 
  74.240000  1045.000000     0.000957  1054.114692     0.000000 
  74.260000  1080.000000     0.000926  1054.106445     0.000000 
  74.280000  1062.000000     0.000942  1054.098822     0.000000 
  74.300000  1042.000000     0.000960  1054.091874     0.000000 
  74.320000  1034.000000     0.000967  1054.085665     0.000000 
  74.340000  1031.000000     0.000970  1054.073108     0.000000 
  74.360000  1020.000000     0.000980  1054.068919     0.000000 
  74.380000  1065.000000     0.000939  1054.065699     0.000000 
  74.400000  1072.000000     0.000933  1054.063558     0.000000 
  74.420000  1068.000000     0.000936  1054.062627     0.000000 
  74.440000  1041.000000     0.000961  1054.063058     0.000000 
  74.460000  1039.000000     0.000962  1054.065026     0.000000 
  74.480000  1073.000000     0.000932  1054.139677     0.000000 
  74.500000  1060.000000     0.000943  1054.149589     0.000000 
  74.520000  1043.000000     0.000959  1054.162074     0.000000 
  74.540000  1060.000000     0.000943  1054.177510     0.000000 
  74.560000  1045.000000     0.000957  1054.196342     0.000000 
  74.580000  1032.000000     0.000969  1054.219108     0.000000 
  74.600000  1050.000000     0.000952  1054.246455     0.000000 
  74.620000  1067.000000     0.000937  1054.279169     0.000000 
  74.640000  1054.000000     0.000949  1054.318217     0.000000 
  74.660000  1023.000000     0.000978  1054.364794     0.000000 
  74.680000  1014.000000     0.000986  1054.420393     0.000000 
  74.700000  1017.000000     0.000983  1054.486902     0.000000 
  74.720000  1076.000000     0.000929  1054.566732     0.000000 
  74.740000  1027.000000     0.000974  1054.663006     0.000000 
  74.760000  1056.000000     0.000947  1054.779824     0.000000 
  74.780000  1079.000000     0.000927  1054.922663     0.000000 
  74.800000  1041.000000     0.000961  1055.098961     0.000000 
  74.820000  1050.000000     0.000952  1055.319034     0.000000 
  74.840000  1054.000000     0.000949  1055.597518     0.000000 
  74.860000  1029.000000     0.000972  1055.955722     0.000000 
  74.880000  1038.000000     0.000963  1056.425625     0.000000 
  74.900000  1023.000000     0.000978  1057.056905     0.000000 
  74.920000  1072.000000     0.000933  1057.929958     0.000000 
  74.940000  1017.000000     0.000983  1059.181973     0.000000 
  74.960000  1017.000000     0.000983  1061.067867     0.000000 
  74.980000  1009.000000     0.000991  1064.129989     0.000000 
  75.000000  1015.000000     0.000985  1069.641740     0.000000 
  75.020000  1030.000000     0.000971  1080.341589     0.000000 
  75.040000  1084.000000     0.000923  1100.416902     0.000000 
  75.060000  1109.000000     0.000902  1129.084568     0.000000 
  75.080000  1164.000000     0.000859  1138.234048     0.000000 
  75.100000  1153.000000     0.000867  1113.129634     0.000000 
  75.120000  1066.000000     0.000938  1088.601865     0.000000 
  75.140000  1011.000000     0.000989  1074.814791     0.000000 
  75.160000  1044.000000     0.000958  1068.143295     0.000000 
  75.180000  1058.000000     0.000945  1065.205768     0.000000 
  75.200000  1042.000000     0.000960  1064.457361     0.000000 
  75.220000  1052.000000     0.000951  1065.766352     0.000000 
  75.240000  1032.000000     0.000969  1070.180052     0.000000 
  75.260000  1049.000000     0.000953  1079.617530     0.000000 
  75.280000  1141.000000     0.000876  1093.359803     0.000000 
  75.300000  1113.000000     0.000898  1096.850982     0.000000 
  75.320000  1104.000000     0.000906  1083.632680     0.000000 
  75.340000  1095.000000     0.000913  1071.124235     0.000000 
  75.360000  1056.000000     0.000947  1064.939293     0.000000 
  75.380000  1031.000000     0.000970  1061.240552     0.000000 
  75.400000  1082.000000     0.000924  1059.240334     0.000000 
  75.420000  1081.000000     0.000925  1058.043265     0.000000 
  75.440000  1065.000000     0.000939  1057.263350     0.000000 
  75.460000  1063.000000     0.000941  1056.727886     0.000000 
  75.480000  1073.000000     0.000932  1056.348002     0.000000 
  75.500000  1032.000000     0.000969  1056.072840     0.000000 
  75.520000  1019.000000     0.000981  1055.871447     0.000000 
  75.540000  1022.000000     0.000978  1055.724162     0.000000 
  75.560000  1024.000000     0.000977  1055.618072     0.000000 
  75.580000  1040.000000     0.000962  1055.544472     0.000000 
  75.600000  1062.000000     0.000942  1055.497387     0.000000 
  75.620000  1063.000000     0.000941  1055.472677     0.000000 
  75.640000  1053.000000     0.000950  1055.467477     0.000000 
  75.660000  1037.000000     0.000964  1055.479846     0.000000 
  75.680000  1075.000000     0.000930  1055.508530     0.000000 
  75.700000  1066.000000     0.000938  1055.552818     0.000000 
  75.720000  1020.000000     0.000980  1055.612438     0.000000 
  75.740000  1060.000000     0.000943  1055.687502     0.000000 
  75.760000  1048.000000     0.000954  1055.778465     0.000000 
  75.780000  1032.000000     0.000969  1055.886120     0.000000 
  75.800000  1071.000000     0.000934  1056.011595     0.000000 
  75.820000  1085.000000     0.000922  1056.156380     0.000000 
  75.840000   997.000000     0.001003  1056.322358     0.000000 
  75.860000  1046.000000     0.000956  1056.511861     0.000000 
  75.880000  1058.000000     0.000945  1056.727749     0.000000 
  75.900000  1028.000000     0.000973  1057.957589     0.000000 
  75.920000  1007.000000     0.000993  1058.291095     0.000000 
  75.940000  1073.000000     0.000932  1058.668366     0.000000 
  75.960000  1098.000000     0.000911  1059.096228     0.000000 
  75.980000  1060.000000     0.000943  1059.583026     0.000000 
  76.000000  1109.000000     0.000902  1060.139031     0.000000 
  76.020000  1112.000000     0.000899  1060.776980     0.000000 
  76.040000  1089.000000     0.000918  1061.512814     0.000000 
  76.060000  1087.000000     0.000920  1062.366679     0.000000 
  76.080000   992.000000     0.001008  1063.364330     0.000000 
  76.100000  1040.000000     0.000962  1064.539103     0.000000 
  76.120000  1066.000000     0.000938  1065.858894     0.000000 
  76.140000  1062.000000     0.000942  1067.537339     0.000000 
  76.160000  1082.000000     0.000924  1069.574025     0.000000 
  76.180000  1071.000000     0.000934  1072.078703     0.000000 
  76.200000  1089.000000     0.000918  1075.206863     0.000000 
  76.220000  1097.000000     0.000912  1079.184597     0.000000 
  76.240000  1108.000000     0.000903  1084.274353     0.000000 
  76.260000  1101.000000     0.000908  1091.156841     0.000000 
  76.280000  1094.000000     0.000914  1100.602188     0.000000 
  76.300000  1062.000000     0.000942  1114.050076     0.000000 
  76.320000  1095.000000     0.000913  1134.091169     0.000000 
  76.340000  1146.000000     0.000873  1165.772916     0.000000 
  76.360000  1167.000000     0.000857  1219.912268     0.000000 
  76.380000  1263.000000     0.000792  1320.876128     0.000000 
  76.400000  1494.000000     0.000669  1518.212005     0.000000 
  76.420000  1795.000000     0.000557  1850.789291     0.000000 
  76.440000  2254.000000     0.000444  2032.518419     0.000000 
  76.460000  2478.000000     0.000404  1747.907827     0.000000 
  76.480000  2166.000000     0.000462  1454.784581     0.000000 
  76.500000  1695.000000     0.000590  1297.997210     0.000000 
  76.520000  1395.000000     0.000717  1221.520701     0.000000 
  76.540000  1261.000000     0.000793  1185.246596     0.000000 
  76.560000  1196.000000     0.000836  1172.146252     0.000000 
  76.580000  1192.000000     0.000839  1178.138242     0.000000 
  76.600000  1226.000000     0.000816  1209.137124     0.000000 
  76.620000  1265.000000     0.000791  1284.347870     0.000000 
  76.640000  1382.000000     0.000724  1430.048263     0.000000 
  76.660000  1610.000000     0.000621  1561.544306     0.000000 
  76.680000  1753.000000     0.000570  1456.503226     0.000000 
  76.700000  1700.000000     0.000588  1290.725848     0.000000 
  76.720000  1468.000000     0.000681  1193.812107     0.000000 
  76.740000  1263.000000     0.000792  1143.741033     0.000000 
  76.760000  1195.000000     0.000837  1116.399638     0.000000 
  76.780000  1127.000000     0.000887  1100.060709     0.000000 
  76.800000  1088.000000     0.000919  1089.503329     0.000000 
  76.820000  1120.000000     0.000893  1082.268929     0.000000 
  76.840000  1076.000000     0.000929  1077.082461     0.000000 
  76.860000  1097.000000     0.000912  1073.228197     0.000000 
  76.880000  1061.000000     0.000943  1070.279696     0.000000 
  76.900000  1096.000000     0.000912  1067.970279     0.000000 
  76.920000  1044.000000     0.000958  1066.126248     0.000000 
  76.940000  1035.000000     0.000966  1064.630489     0.000000 
  76.960000  1066.000000     0.000938  1066.276700     0.000000 
  76.980000  1111.000000     0.000900  1065.356827     0.000000 
  77.000000  1029.000000     0.000972  1064.609307     0.000000 
  77.020000  1049.000000     0.000953  1064.003463     0.000000 
  77.040000  1090.000000     0.000917  1063.819632     0.000000 
  77.060000  1110.000000     0.000901  1063.450301     0.000000 
  77.080000  1070.000000     0.000935  1063.171311     0.000000 
  77.100000  1011.000000     0.000989  1062.973432     0.000000 
  77.120000  1068.000000     0.000936  1062.850154     0.000000 
  77.140000  1080.000000     0.000926  1062.797256     0.000000 
  77.160000  1080.000000     0.000926  1062.812541     0.000000 
  77.180000  1059.000000     0.000944  1062.895721     0.000000 
  77.200000  1030.000000     0.000971  1063.048421     0.000000 
  77.220000  1038.000000     0.000963  1063.274328     0.000000 
  77.240000  1040.000000     0.000962  1063.579484     0.000000 
  77.260000  1041.000000     0.000961  1063.972792     0.000000 
  77.280000  1073.000000     0.000932  1064.466785     0.000000 
  77.300000  1072.000000     0.000933  1065.078808     0.000000 
  77.320000  1038.000000     0.000963  1065.832806     0.000000 
  77.340000  1084.000000     0.000923  1066.762078     0.000000 
  77.360000  1064.000000     0.000940  1067.913613     0.000000 
  77.380000  1043.000000     0.000959  1069.737244     0.000000 
  77.400000  1027.000000     0.000974  1071.581621     0.000000 
  77.420000  1062.000000     0.000942  1073.969234     0.000000 
  77.440000  1080.000000     0.000926  1076.198264     0.000000 
  77.460000  1080.000000     0.000926  1080.603344     0.000000 
  77.480000  1105.000000     0.000905  1086.895383     0.000000 
  77.500000  1131.000000     0.000884  1096.424024     0.000000 
  77.520000  1118.000000     0.000894  1112.065447     0.000000 
  77.540000  1125.000000     0.000889  1142.174038     0.000000 
  77.560000  1151.000000     0.000869  1195.737445     0.000000 
  77.580000  1224.000000     0.000817  1288.603552     0.000000 
  77.600000  1327.000000     0.000754  1374.536951     0.000000 
  77.620000  1343.000000     0.000745  1326.655869     0.000000 
  77.640000  1254.000000     0.000797  1228.054989     0.000000 
  77.660000  1190.000000     0.000840  1166.722465     0.000000 
  77.680000  1165.000000     0.000858  1136.512138     0.000000 
  77.700000  1186.000000     0.000843  1122.962861     0.000000 
  77.720000  1137.000000     0.000880  1118.445732     0.000000 
  77.740000  1092.000000     0.000916  1120.279907     0.000000 
  77.760000  1116.000000     0.000896  1129.019370     0.000000 
  77.780000  1166.000000     0.000858  1148.589792     0.000000 
  77.800000  1203.000000     0.000831  1186.446405     0.000000 
  77.820000  1284.000000     0.000779  1240.931695     0.000000 
  77.840000  1274.000000     0.000785  1256.323064     0.000000 
  77.860000  1228.000000     0.000814  1214.070678     0.000000 
  77.880000  1181.000000     0.000847  1179.895885     0.000000 
  77.900000  1166.000000     0.000858  1166.747905     0.000000 
  77.920000  1135.000000     0.000881  1167.499256     0.000000 
  77.940000  1141.000000     0.000876  1177.543588     0.000000 
  77.960000  1184.000000     0.000845  1196.144156     0.000000 
  77.980000  1236.000000     0.000809  1223.952099     0.000000 
  78.000000  1265.000000     0.000791  1265.110014     0.000000 
  78.020000  1240.000000     0.000806  1327.153152     0.000000 
  78.040000  1333.000000     0.000750  1425.619430     0.000000 
  78.060000  1509.000000     0.000663  1595.252020     0.000000 
  78.080000  1869.000000     0.000535  1911.135640     0.000000 
  78.100000  2503.000000     0.000400  2502.854712     0.000000 
  78.120000  3488.000000     0.000287  3447.950817     0.000000 
  78.140000  4585.000000     0.000218  4131.178549     0.000000 
  78.160000  5071.000000     0.000197  3537.976837     0.000000 
  78.180000  4185.000000     0.000239  2588.505595     0.000000 
  78.200000  2710.000000     0.000369  1985.116926     0.000000 
  78.220000  1932.000000     0.000518  1672.740595     0.000000 
  78.240000  1534.000000     0.000652  1521.535613     0.000000 
  78.260000  1395.000000     0.000717  1457.527340     0.000000 
  78.280000  1392.000000     0.000718  1454.492231     0.000000 
  78.300000  1502.000000     0.000666  1519.991072     0.000000 
  78.320000  1668.000000     0.000600  1694.694707     0.000000 
  78.340000  2059.000000     0.000486  2043.405725     0.000000 
  78.360000  2614.000000     0.000383  2519.225076     0.000000 
  78.380000  2978.000000     0.000336  2600.174405     0.000000 
  78.400000  2967.000000     0.000337  2136.641676     0.000000 
  78.420000  2369.000000     0.000422  1714.193911     0.000000 
  78.440000  1754.000000     0.000570  1472.354228     0.000000 
  78.460000  1461.000000     0.000684  1347.506216     0.000000 
  78.480000  1315.000000     0.000760  1284.699125     0.000000 
  78.500000  1232.000000     0.000812  1257.690933     0.000000 
  78.520000  1218.000000     0.000821  1260.643361     0.000000 
  78.540000  1240.000000     0.000806  1301.294537     0.000000 
  78.560000  1299.000000     0.000770  1392.061599     0.000000 
  78.580000  1405.000000     0.000712  1504.713270     0.000000 
  78.600000  1444.000000     0.000693  1498.566914     0.000000 
  78.620000  1436.000000     0.000696  1369.528323     0.000000 
  78.640000  1305.000000     0.000766  1258.098417     0.000000 
  78.660000  1199.000000     0.000834  1192.509799     0.000000 
  78.680000  1114.000000     0.000898  1157.928591     0.000000 
  78.700000  1146.000000     0.000873  1140.265976     0.000000 
  78.720000  1136.000000     0.000880  1132.687569     0.000000 
  78.740000  1097.000000     0.000912  1133.812958     0.000000 
  78.760000  1101.000000     0.000908  1146.401558     0.000000 
  78.780000  1183.000000     0.000845  1178.036452     0.000000 
  78.800000  1163.000000     0.000860  1233.309951     0.000000 
  78.820000  1196.000000     0.000836  1281.417372     0.000000 
  78.840000  1259.000000     0.000794  1252.499486     0.000000 
  78.860000  1228.000000     0.000814  1186.013230     0.000000 
  78.880000  1199.000000     0.000834  1137.908405     0.000000 
  78.900000  1106.000000     0.000904  1110.483259     0.000000 
  78.920000  1080.000000     0.000926  1095.281834     0.000000 
  78.940000  1106.000000     0.000904  1086.246274     0.000000 
  78.960000  1062.000000     0.000942  1080.308506     0.000000 
  78.980000  1075.000000     0.000930  1076.087194     0.000000 
  79.000000  1043.000000     0.000959  1072.923238     0.000000 
  79.020000  1083.000000     0.000923  1070.978848     0.000000 
  79.040000  1090.000000     0.000917  1069.016116     0.000000 
  79.060000  1076.000000     0.000929  1067.404878     0.000000 
  79.080000  1062.000000     0.000942  1066.055842     0.000000 
  79.100000  1097.000000     0.000912  1064.907879     0.000000 
  79.120000  1107.000000     0.000903  1063.917814     0.000000 
  79.140000  1059.000000     0.000944  1063.054312     0.000000 
  79.160000  1044.000000     0.000958  1062.294085     0.000000 
  79.180000   994.000000     0.001006  1061.619455     0.000000 
  79.200000  1025.000000     0.000976  1061.016757     0.000000 
  79.220000  1061.000000     0.000943  1057.687006     0.000000 
  79.240000  1129.000000     0.000886  1057.324980     0.000000 
  79.260000  1057.000000     0.000946  1057.000214     0.000000 
  79.280000  1031.000000     0.000970  1056.707802     0.000000 
  79.300000  1079.000000     0.000927  1056.443754     0.000000 
  79.320000  1063.000000     0.000941  1056.204797     0.000000 
  79.340000  1038.000000     0.000963  1053.201001     0.000000 
  79.360000  1062.000000     0.000942  1053.095185     0.000000 
  79.380000  1057.000000     0.000946  1053.003307     0.000000 
  79.400000  1054.000000     0.000949  1052.924087     0.000000 
  79.420000  1047.000000     0.000955  1052.856483     0.000000 
  79.440000  1067.000000     0.000937  1052.799657     0.000000 
  79.460000  1045.000000     0.000957  1052.752941     0.000000 
  79.480000  1041.000000     0.000961  1052.715820     0.000000 
  79.500000  1071.000000     0.000934  1052.687912     0.000000 
  79.520000  1074.000000     0.000931  1052.668957     0.000000 
  79.540000  1049.000000     0.000953  1052.658809     0.000000 
  79.560000  1051.000000     0.000951  1052.657428     0.000000 
  79.580000  1036.000000     0.000965  1052.664880     0.000000 
  79.600000  1104.000000     0.000906  1052.681338     0.000000 
  79.620000  1056.000000     0.000947  1052.707080     0.000000 
  79.640000  1016.000000     0.000984  1052.742502     0.000000 
  79.660000  1025.000000     0.000976  1053.307517     0.000000 
  79.680000  1040.000000     0.000962  1053.386208     0.000000 
  79.700000  1062.000000     0.000942  1053.113695     0.000000 
  79.720000  1069.000000     0.000935  1053.235762     0.000000 
  79.740000  1062.000000     0.000942  1053.372326     0.000000 
  79.760000  1050.000000     0.000952  1053.525042     0.000000 
  79.780000  1066.000000     0.000938  1053.695847     0.000000 
  79.800000  1076.000000     0.000929  1053.887018     0.000000 
  79.820000   993.000000     0.001007  1053.731095     0.000000 
  79.840000  1039.000000     0.000962  1053.983288     0.000000 
  79.860000  1022.000000     0.000978  1054.264954     0.000000 
  79.880000  1008.000000     0.000992  1054.580667     0.000000 
  79.900000  1024.000000     0.000977  1054.935933     0.000000 
  79.920000  1078.000000     0.000928  1055.337427     0.000000 
  79.940000  1081.000000     0.000925  1055.793304     0.000000 
  79.960000  1067.000000     0.000937  1056.313619     0.000000 
  79.980000  1039.000000     0.000962  1056.910879     0.000000 
  80.000000  1038.000000     0.000963  1057.600802     0.000000 
  80.020000  1065.000000     0.000939  1058.403368     0.000000 
  80.040000  1041.000000     0.000961  1059.344278     0.000000 
  80.060000  1044.000000     0.000958  1060.457047     0.000000 
  80.080000  1066.000000     0.000938  1061.786040     0.000000 
  80.100000  1064.000000     0.000940  1063.390961     0.000000 
  80.120000  1065.000000     0.000939  1065.353670     0.000000 
  80.140000  1087.000000     0.000920  1067.788768     0.000000 
  80.160000  1087.000000     0.000920  1070.860511     0.000000 
  80.180000  1084.000000     0.000923  1074.810748     0.000000 
  80.200000  1090.000000     0.000917  1080.007364     0.000000 
  80.220000  1100.000000     0.000909  1087.037095     0.000000 
  80.240000  1095.000000     0.000913  1096.919324     0.000000 
  80.260000  1058.000000     0.000945  1111.678179     0.000000 
  80.280000  1060.000000     0.000943  1135.757170     0.000000 
  80.300000  1111.000000     0.000900  1178.445188     0.000000 
  80.320000  1168.000000     0.000856  1255.356133     0.000000 
  80.340000  1246.000000     0.000803  1383.360522     0.000000 
  80.360000  1400.000000     0.000714  1554.196998     0.000000 
  80.380000  1706.000000     0.000586  1662.528727     0.000000 
  80.400000  2077.000000     0.000481  1579.081984     0.000000 
  80.420000  2050.000000     0.000488  1410.236951     0.000000 
  80.440000  1700.000000     0.000588  1277.855843     0.000000 
  80.460000  1417.000000     0.000706  1198.751617     0.000000 
  80.480000  1248.000000     0.000801  1157.614439     0.000000 
  80.500000  1145.000000     0.000873  1139.097622     0.000000 
  80.520000  1154.000000     0.000867  1135.189458     0.000000 
  80.540000  1121.000000     0.000892  1145.401984     0.000000 
  80.560000  1127.000000     0.000887  1175.117300     0.000000 
  80.580000  1156.000000     0.000865  1231.821519     0.000000 
  80.600000  1247.000000     0.000802  1312.373674     0.000000 
  80.620000  1397.000000     0.000716  1367.578567     0.000000 
  80.640000  1503.000000     0.000665  1328.389548     0.000000 
  80.660000  1485.000000     0.000673  1241.360592     0.000000 
  80.680000  1344.000000     0.000744  1170.697245     0.000000 
  80.700000  1260.000000     0.000794  1126.758044     0.000000 
  80.720000  1125.000000     0.000889  1101.908474     0.000000 
  80.740000  1141.000000     0.000876  1087.802493     0.000000 
  80.760000  1084.000000     0.000923  1079.147017     0.000000 
  80.780000  1067.000000     0.000937  1073.324372     0.000000 
  80.800000  1057.000000     0.000946  1069.141195     0.000000 
  80.820000  1049.000000     0.000953  1066.008201     0.000000 
  80.840000  1065.000000     0.000939  1063.591497     0.000000 
  80.860000  1063.000000     0.000941  1061.682792     0.000000 
  80.880000  1052.000000     0.000951  1060.145079     0.000000 
  80.900000  1035.000000     0.000966  1058.885032     0.000000 
  80.920000  1022.000000     0.000978  1057.837259     0.000000 
  80.940000  1029.000000     0.000972  1056.954805     0.000000 
  80.960000  1065.000000     0.000939  1056.203209     0.000000 
  80.980000  1035.000000     0.000966  1055.556693     0.000000 
  81.000000  1029.000000     0.000972  1054.995640     0.000000 
  81.020000  1041.000000     0.000961  1054.504890     0.000000 
  81.040000  1055.000000     0.000948  1054.072565     0.000000 
  81.060000  1060.000000     0.000943  1053.689243     0.000000 
  81.080000   999.000000     0.001001  1053.347364     0.000000 
  81.100000  1028.000000     0.000973  1053.040801     0.000000 
  81.120000  1058.000000     0.000945  1052.764540     0.000000 
  81.140000  1055.000000     0.000948  1052.514444     0.000000 
  81.160000  1041.000000     0.000961  1052.287074     0.000000 
  81.180000  1084.000000     0.000923  1052.079546     0.000000 
  81.200000  1044.000000     0.000958  1051.889430     0.000000 
  81.220000  1051.000000     0.000951  1051.714663     0.000000 
  81.240000  1045.000000     0.000957  1051.553484     0.000000 
  81.260000  1033.000000     0.000968  1051.404383     0.000000 
  81.280000  1026.000000     0.000975  1051.266057     0.000000 
  81.300000  1045.000000     0.000957  1051.137377     0.000000 
  81.320000  1056.000000     0.000947  1051.017360     0.000000 
  81.340000  1019.000000     0.000981  1050.905149     0.000000 
  81.360000  1009.000000     0.000991  1050.799991     0.000000 
  81.380000  1048.000000     0.000954  1050.701223     0.000000 
  81.400000  1034.000000     0.000967  1050.608259     0.000000 
  81.420000  1066.000000     0.000938  1050.520580     0.000000 
  81.440000  1048.000000     0.000954  1050.437724     0.000000 
  81.460000  1030.000000     0.000971  1050.359282     0.000000 
  81.480000  1052.000000     0.000951  1050.284884     0.000000 
  81.500000  1040.000000     0.000962  1050.214201     0.000000 
  81.520000  1049.000000     0.000953  1050.146937     0.000000 
  81.540000  1080.000000     0.000926  1050.082824     0.000000 
  81.560000  1054.000000     0.000949  1050.021622     0.000000 
  81.580000  1056.000000     0.000947  1049.963113     0.000000 
  81.600000  1052.000000     0.000951  1049.403233     0.000000 
  81.620000  1040.000000     0.000962  1049.369499     0.000000 
  81.640000  1016.000000     0.000984  1049.336753     0.000000 
  81.660000  1045.000000     0.000957  1049.304935     0.000000 
  81.680000  1053.000000     0.000950  1049.273989     0.000000 
  81.700000  1010.000000     0.000990  1049.243864     0.000000 
  81.720000  1014.000000     0.000986  1049.214510     0.000000 
  81.740000  1029.000000     0.000972  1049.185884     0.000000 
  81.760000  1035.000000     0.000966  1048.650930     0.000000 
  81.780000  1002.000000     0.000998  1048.638020     0.000000 
  81.800000  1029.000000     0.000972  1048.625120     0.000000 
  81.820000  1051.000000     0.000951  1048.612228     0.000000 
  81.840000  1025.000000     0.000976  1048.599346     0.000000 
  81.860000  1097.000000     0.000912  1048.586473     0.000000 
  81.880000  1081.000000     0.000925  1048.573609     0.000000 
  81.900000  1055.000000     0.000948  1048.560755     0.000000 
  81.920000  1014.000000     0.000986  1048.547909     0.000000 
  81.940000  1005.000000     0.000995  1048.535073     0.000000 
  81.960000  1050.000000     0.000952  1048.522246     0.000000 
  81.980000  1086.000000     0.000921  1048.509429     0.000000 
  82.000000  1083.000000     0.000923  1048.496621     0.000000 
  82.020000  1056.000000     0.000947  1048.483822     0.000000 
  82.040000  1068.000000     0.000936  1048.471033     0.000000 
  82.060000  1066.000000     0.000938  1048.458253     0.000000 
  82.080000  1070.000000     0.000935  1048.445482     0.000000 
  82.100000  1029.000000     0.000972  1048.432721     0.000000 
  82.120000  1042.000000     0.000960  1048.419969     0.000000 
  82.140000  1030.000000     0.000971  1048.407227     0.000000 
  82.160000  1028.000000     0.000973  1048.394495     0.000000 
  82.180000  1046.000000     0.000956  1048.381772     0.000000 
  82.200000  1042.000000     0.000960  1048.369059     0.000000 
  82.220000  1002.000000     0.000998  1048.356355     0.000000 
  82.240000  1041.000000     0.000961  1048.343661     0.000000 
  82.260000  1083.000000     0.000923  1048.330976     0.000000 
  82.280000  1061.000000     0.000943  1048.318301     0.000000 
  82.300000  1049.000000     0.000953  1048.305636     0.000000 
  82.320000  1031.000000     0.000970  1048.292981     0.000000 
  82.340000  1021.000000     0.000979  1048.280335     0.000000 
  82.360000  1018.000000     0.000982  1048.267699     0.000000 
  82.380000  1049.000000     0.000953  1048.255073     0.000000 
  82.400000  1079.000000     0.000927  1048.242457     0.000000 
  82.420000  1077.000000     0.000929  1048.229850     0.000000 
  82.440000  1042.000000     0.000960  1048.217254     0.000000 
  82.460000  1034.000000     0.000967  1048.204667     0.000000 
  82.480000  1025.000000     0.000976  1048.192090     0.000000 
  82.500000  1052.000000     0.000951  1048.179523     0.000000 
  82.520000  1072.000000     0.000933  1048.166966     0.000000 
  82.540000  1061.000000     0.000943  1048.154419     0.000000 
  82.560000  1042.000000     0.000960  1048.141882     0.000000 
  82.580000  1039.000000     0.000962  1048.129356     0.000000 
  82.600000  1035.000000     0.000966  1048.116839     0.000000 
  82.620000  1039.000000     0.000962  1048.104332     0.000000 
  82.640000  1054.000000     0.000949  1048.091835     0.000000 
  82.660000  1064.000000     0.000940  1048.079349     0.000000 
  82.680000  1045.000000     0.000957  1048.066872     0.000000 
  82.700000  1023.000000     0.000978  1048.054406     0.000000 
  82.720000  1021.000000     0.000979  1048.041950     0.000000 
  82.740000   977.000000     0.001024  1048.029504     0.000000 
  82.760000  1051.000000     0.000951  1048.017069     0.000000 
  82.780000  1025.000000     0.000976  1048.004643     0.000000 
  82.800000  1061.000000     0.000943  1047.992228     0.000000 
  82.820000  1040.000000     0.000962  1047.979824     0.000000 
  82.840000  1037.000000     0.000964  1047.967429     0.000000 
  82.860000  1046.000000     0.000956  1047.955045     0.000000 
  82.880000  1013.000000     0.000987  1047.942672     0.000000 
  82.900000  1039.000000     0.000962  1047.930308     0.000000 
  82.920000  1056.000000     0.000947  1047.917955     0.000000 
  82.940000  1044.000000     0.000958  1047.905613     0.000000 
  82.960000  1061.000000     0.000943  1047.893281     0.000000 
  82.980000  1067.000000     0.000937  1047.880960     0.000000 
  83.000000  1028.000000     0.000973  1047.868649     0.000000 
  83.020000  1043.000000     0.000959  1047.856349     0.000000 
  83.040000  1014.000000     0.000986  1047.844059     0.000000 
  83.060000  1055.000000     0.000948  1047.831780     0.000000 
  83.080000  1075.000000     0.000930  1047.819511     0.000000 
  83.100000  1108.000000     0.000903  1047.807253     0.000000 
  83.120000  1076.000000     0.000929  1047.795006     0.000000 
  83.140000  1083.000000     0.000923  1047.782770     0.000000 
  83.160000  1084.000000     0.000923  1047.770544     0.000000 
  83.180000  1042.000000     0.000960  1047.758329     0.000000 
  83.200000  1007.000000     0.000993  1047.746124     0.000000 
  83.220000  1064.000000     0.000940  1047.733931     0.000000 
  83.240000  1037.000000     0.000964  1047.721748     0.000000 
  83.260000  1017.000000     0.000983  1047.709576     0.000000 
  83.280000  1037.000000     0.000964  1047.697415     0.000000 
  83.300000  1044.000000     0.000958  1047.685265     0.000000 
  83.320000  1053.000000     0.000950  1047.673126     0.000000 
  83.340000  1062.000000     0.000942  1047.660997     0.000000 
  83.360000  1048.000000     0.000954  1047.648880     0.000000 
  83.380000  1057.000000     0.000946  1047.636774     0.000000 
  83.400000  1049.000000     0.000953  1047.624678     0.000000 
  83.420000  1094.000000     0.000914  1047.612594     0.000000 
  83.440000  1096.000000     0.000912  1047.600520     0.000000 
  83.460000  1027.000000     0.000974  1047.588458     0.000000 
  83.480000  1081.000000     0.000925  1047.576407     0.000000 
  83.500000  1052.000000     0.000951  1047.564367     0.000000 
  83.520000  1032.000000     0.000969  1047.552338     0.000000 
  83.540000   993.000000     0.001007  1047.540320     0.000000 
  83.560000  1021.000000     0.000979  1047.528313     0.000000 
  83.580000  1047.000000     0.000955  1047.516318     0.000000 
  83.600000   991.000000     0.001009  1047.504334     0.000000 
  83.620000  1020.000000     0.000980  1047.492361     0.000000 
  83.640000  1033.000000     0.000968  1047.480399     0.000000 
  83.660000  1097.000000     0.000912  1047.468449     0.000000 
  83.680000  1043.000000     0.000959  1047.456510     0.000000 
  83.700000  1052.000000     0.000951  1047.444582     0.000000 
  83.720000  1025.000000     0.000976  1047.432666     0.000000 
  83.740000  1034.000000     0.000967  1047.420761     0.000000 
  83.760000  1002.000000     0.000998  1047.408868     0.000000 
  83.780000  1020.000000     0.000980  1047.396986     0.000000 
  83.800000  1056.000000     0.000947  1047.385115     0.000000 
  83.820000  1097.000000     0.000912  1047.373256     0.000000 
  83.840000  1072.000000     0.000933  1047.361408     0.000000 
  83.860000  1060.000000     0.000943  1047.349572     0.000000 
  83.880000  1069.000000     0.000935  1047.337748     0.000000 
  83.900000  1040.000000     0.000962  1047.325935     0.000000 
  83.920000  1037.000000     0.000964  1047.314134     0.000000 
  83.940000  1065.000000     0.000939  1047.302344     0.000000 
  83.960000  1041.000000     0.000961  1047.290566     0.000000 
  83.980000  1029.000000     0.000972  1047.278800     0.000000 
  84.000000  1049.000000     0.000953  1047.267045     0.000000 
  84.020000  1030.000000     0.000971  1047.255302     0.000000 
  84.040000  1006.000000     0.000994  1047.243571     0.000000 
  84.060000  1060.000000     0.000943  1047.231852     0.000000 
  84.080000  1047.000000     0.000955  1047.220144     0.000000 
  84.100000  1012.000000     0.000988  1047.208449     0.000000 
  84.120000  1034.000000     0.000967  1047.196765     0.000000 
  84.140000  1032.000000     0.000969  1047.185093     0.000000 
  84.160000  1056.000000     0.000947  1047.173433     0.000000 
  84.180000  1048.000000     0.000954  1047.161784     0.000000 
  84.200000  1028.000000     0.000973  1047.150148     0.000000 
  84.220000  1026.000000     0.000975  1047.138524     0.000000 
  84.240000  1031.000000     0.000970  1047.126911     0.000000 
  84.260000  1069.000000     0.000935  1047.115311     0.000000 
  84.280000  1100.000000     0.000909  1047.103723     0.000000 
  84.300000  1084.000000     0.000923  1047.092147     0.000000 
  84.320000  1041.000000     0.000961  1047.080582     0.000000 
  84.340000  1042.000000     0.000960  1047.069030     0.000000 
  84.360000  1038.000000     0.000963  1047.057490     0.000000 
  84.380000  1015.000000     0.000985  1047.045963     0.000000 
  84.400000  1012.000000     0.000988  1047.034447     0.000000 
  84.420000  1033.000000     0.000968  1047.022944     0.000000 
  84.440000  1040.000000     0.000962  1047.011452     0.000000 
  84.460000  1062.000000     0.000942  1046.999973     0.000000 
  84.480000  1017.000000     0.000983  1046.988507     0.000000 
  84.500000  1024.000000     0.000977  1046.977052     0.000000 
  84.520000  1030.000000     0.000971  1046.965610     0.000000 
  84.540000  1010.000000     0.000990  1046.954180     0.000000 
  84.560000  1041.000000     0.000961  1046.942763     0.000000 
  84.580000  1070.000000     0.000935  1046.931358     0.000000 
  84.600000  1079.000000     0.000927  1046.919965     0.000000 
  84.620000  1035.000000     0.000966  1046.908585     0.000000 
  84.640000  1048.000000     0.000954  1046.897217     0.000000 
  84.660000  1071.000000     0.000934  1046.885862     0.000000 
  84.680000  1026.000000     0.000975  1046.874519     0.000000 
  84.700000  1105.000000     0.000905  1046.863189     0.000000 
  84.720000  1049.000000     0.000953  1046.851872     0.000000 
  84.740000  1074.000000     0.000931  1046.840566     0.000000 
  84.760000  1037.000000     0.000964  1046.829274     0.000000 
  84.780000  1035.000000     0.000966  1046.817994     0.000000 
  84.800000  1029.000000     0.000972  1046.806727     0.000000 
  84.820000  1016.000000     0.000984  1046.795472     0.000000 
  84.840000  1069.000000     0.000935  1046.784230     0.000000 
  84.860000  1031.000000     0.000970  1046.773001     0.000000 
  84.880000   975.000000     0.001026  1046.761785     0.000000 
  84.900000   981.000000     0.001019  1046.750581     0.000000 
  84.920000  1049.000000     0.000953  1046.739390     0.000000 
  84.940000  1027.000000     0.000974  1046.728212     0.000000 
  84.960000  1031.000000     0.000970  1046.717047     0.000000 
  84.980000  1022.000000     0.000978  1046.705894     0.000000 
  85.000000  1053.000000     0.000950  1046.694755     0.000000 
  85.020000  1075.000000     0.000930  1046.683628     0.000000 
  85.040000  1051.000000     0.000951  1046.672514     0.000000 
  85.060000  1017.000000     0.000983  1046.661413     0.000000 
  85.080000  1041.000000     0.000961  1046.650326     0.000000 
  85.100000  1058.000000     0.000945  1046.639251     0.000000 
  85.120000  1047.000000     0.000955  1046.628189     0.000000 
  85.140000  1023.000000     0.000978  1046.617140     0.000000 
  85.160000  1093.000000     0.000915  1046.606104     0.000000 
  85.180000  1062.000000     0.000942  1046.595082     0.000000 
  85.200000  1035.000000     0.000966  1046.584072     0.000000 
  85.220000  1014.000000     0.000986  1046.573076     0.000000 
  85.240000  1018.000000     0.000982  1046.562092     0.000000 
  85.260000  1023.000000     0.000978  1046.551122     0.000000 
  85.280000  1008.000000     0.000992  1046.540166     0.000000 
  85.300000  1038.000000     0.000963  1046.529222     0.000000 
  85.320000  1029.000000     0.000972  1047.856713     0.000000 
  85.340000  1062.000000     0.000942  1047.875144     0.000000 
  85.360000  1068.000000     0.000936  1047.894564     0.000000 
  85.380000  1032.000000     0.000969  1047.915016     0.000000 
  85.400000  1043.000000     0.000959  1047.936547     0.000000 
  85.420000  1066.000000     0.000938  1047.959206     0.000000 
  85.440000  1055.000000     0.000948  1047.983044     0.000000 
  85.460000  1016.000000     0.000984  1048.008116     0.000000 
  85.480000  1063.000000     0.000941  1048.034480     0.000000 
  85.500000  1048.000000     0.000954  1048.062198     0.000000 
  85.520000  1052.000000     0.000951  1048.091334     0.000000 
  85.540000  1096.000000     0.000912  1048.121958     0.000000 
  85.560000  1073.000000     0.000932  1048.154143     0.000000 
  85.580000  1072.000000     0.000933  1048.187967     0.000000 
  85.600000  1013.000000     0.000987  1048.223514     0.000000 
  85.620000  1049.000000     0.000953  1048.260871     0.000000 
  85.640000  1067.000000     0.000937  1048.300133     0.000000 
  85.660000  1045.000000     0.000957  1048.341401     0.000000 
  85.680000  1068.000000     0.000936  1048.384781     0.000000 
  85.700000  1070.000000     0.000935  1048.430388     0.000000 
  85.720000  1079.000000     0.000927  1048.478345     0.000000 
  85.740000  1073.000000     0.000932  1048.528783     0.000000 
  85.760000  1072.000000     0.000933  1048.581841     0.000000 
  85.780000  1045.000000     0.000957  1048.637671     0.000000 
  85.800000  1028.000000     0.000973  1048.696434     0.000000 
  85.820000  1074.000000     0.000931  1048.758303     0.000000 
  85.840000  1132.000000     0.000883  1048.823464     0.000000 
  85.860000  1020.000000     0.000980  1048.892119     0.000000 
  85.880000   984.000000     0.001016  1048.964483     0.000000 
  85.900000  1070.000000     0.000935  1049.040791     0.000000 
  85.920000  1062.000000     0.000942  1049.121293     0.000000 
  85.940000  1049.000000     0.000953  1049.206263     0.000000 
  85.960000   987.000000     0.001013  1049.295996     0.000000 
  85.980000  1003.000000     0.000997  1049.390812     0.000000 
  86.000000  1029.000000     0.000972  1049.491057     0.000000 
  86.020000   993.000000     0.001007  1049.597110     0.000000 
  86.040000   995.000000     0.001005  1049.709381     0.000000 
  86.060000  1049.000000     0.000953  1049.828319     0.000000 
  86.080000  1057.000000     0.000946  1049.954413     0.000000 
  86.100000  1019.000000     0.000981  1050.088197     0.000000 
  86.120000   998.000000     0.001002  1050.230257     0.000000 
  86.140000  1026.000000     0.000975  1051.729739     0.000000 
  86.160000  1044.000000     0.000958  1051.932584     0.000000 
  86.180000  1009.000000     0.000991  1052.147847     0.000000 
  86.200000  1051.000000     0.000951  1052.376515     0.000000 
  86.220000  1059.000000     0.000944  1052.619679     0.000000 
  86.240000  1038.000000     0.000963  1052.878540     0.000000 
  86.260000  1037.000000     0.000964  1053.154431     0.000000 
  86.280000  1054.000000     0.000949  1053.448826     0.000000 
  86.300000  1063.000000     0.000941  1053.763366     0.000000 
  86.320000  1069.000000     0.000935  1054.099879     0.000000 
  86.340000  1066.000000     0.000938  1054.460408     0.000000 
  86.360000  1060.000000     0.000943  1054.847237     0.000000 
  86.380000  1061.000000     0.000943  1055.262933     0.000000 
  86.400000  1027.000000     0.000974  1055.710387     0.000000 
  86.420000  1013.000000     0.000987  1056.192861     0.000000 
  86.440000  1047.000000     0.000955  1056.714051     0.000000 
  86.460000  1069.000000     0.000935  1057.278159     0.000000 
  86.480000  1050.000000     0.000952  1057.889975     0.000000 
  86.500000  1002.000000     0.000998  1058.554982     0.000000 
  86.520000  1059.000000     0.000944  1059.279481     0.000000 
  86.540000  1039.000000     0.000962  1060.070739     0.000000 
  86.560000  1076.000000     0.000929  1060.937177     0.000000 
  86.580000  1044.000000     0.000958  1061.888595     0.000000 
  86.600000  1083.000000     0.000923  1062.936454     0.000000 
  86.620000  1097.000000     0.000912  1064.094232     0.000000 
  86.640000  1086.000000     0.000921  1065.377856     0.000000 
  86.660000  1085.000000     0.000922  1066.806268     0.000000 
  86.680000  1101.000000     0.000908  1068.402132     0.000000 
  86.700000  1074.000000     0.000931  1070.192752     0.000000 
  86.720000  1054.000000     0.000949  1072.211262     0.000000 
  86.740000  1054.000000     0.000949  1074.498184     0.000000 
  86.760000  1024.000000     0.000977  1077.103497     0.000000 
  86.780000  1047.000000     0.000955  1080.089414     0.000000 
  86.800000  1060.000000     0.000943  1083.566740     0.000000 
  86.820000  1060.000000     0.000943  1087.570335     0.000000 
  86.840000  1066.000000     0.000938  1092.259925     0.000000 
  86.860000  1083.000000     0.000923  1097.801958     0.000000 
  86.880000  1098.000000     0.000911  1104.416370     0.000000 
  86.900000  1057.000000     0.000946  1112.398855     0.000000 
  86.920000  1079.000000     0.000927  1122.156662     0.000000 
  86.940000  1095.000000     0.000913  1134.274344     0.000000 
  86.960000  1134.000000     0.000882  1149.676695     0.000000 
  86.980000  1083.000000     0.000923  1169.879190     0.000000 
  87.000000  1100.000000     0.000909  1197.867265     0.000000 
  87.020000  1106.000000     0.000904  1239.457355     0.000000 
  87.040000  1164.000000     0.000859  1305.380606     0.000000 
  87.060000  1232.000000     0.000812  1412.837430     0.000000 
  87.080000  1288.000000     0.000776  1584.020638     0.000000 
  87.100000  1424.000000     0.000702  1838.823381     0.000000 
  87.120000  1687.000000     0.000593  2179.936870     0.000000 
  87.140000  2106.000000     0.000475  2565.520783     0.000000 
  87.160000  2741.000000     0.000365  2867.611577     0.000000 
  87.180000  3449.000000     0.000290  2904.612957     0.000000 
  87.200000  3592.000000     0.000278  2651.577705     0.000000 
  87.220000  3006.000000     0.000333  2278.398652     0.000000 
  87.240000  2231.000000     0.000448  1933.202342     0.000000 
  87.260000  1699.000000     0.000589  1673.112035     0.000000 
  87.280000  1445.000000     0.000692  1503.718798     0.000000 
  87.300000  1294.000000     0.000773  1410.957736     0.000000 
  87.320000  1276.000000     0.000784  1378.951068     0.000000 
  87.340000  1276.000000     0.000784  1399.062832     0.000000 
  87.360000  1293.000000     0.000773  1470.587288     0.000000 
  87.380000  1359.000000     0.000736  1594.488429     0.000000 
  87.400000  1493.000000     0.000670  1761.837027     0.000000 
  87.420000  1672.000000     0.000598  1934.807652     0.000000 
  87.440000  2033.000000     0.000492  2030.087961     0.000000 
  87.460000  2304.000000     0.000434  1973.815521     0.000000 
  87.480000  2203.000000     0.000454  1802.038402     0.000000 
  87.500000  1868.000000     0.000535  1606.254650     0.000000 
  87.520000  1497.000000     0.000668  1440.354766     0.000000 
  87.540000  1350.000000     0.000741  1319.068968     0.000000 
  87.560000  1233.000000     0.000811  1238.388726     0.000000 
  87.580000  1172.000000     0.000853  1187.595773     0.000000 
  87.600000  1128.000000     0.000887  1155.853895     0.000000 
  87.620000  1139.000000     0.000878  1135.309099     0.000000 
  87.640000  1134.000000     0.000882  1120.915739     0.000000 
  87.660000  1103.000000     0.000907  1110.162848     0.000000 
  87.680000  1087.000000     0.000920  1101.762106     0.000000 
  87.700000  1087.000000     0.000920  1095.002199     0.000000 
  87.720000  1065.000000     0.000939  1089.455958     0.000000 
  87.740000  1079.000000     0.000927  1084.839152     0.000000 
  87.760000  1053.000000     0.000950  1080.949856     0.000000 
  87.780000  1091.000000     0.000917  1077.639327     0.000000 
  87.800000  1071.000000     0.000934  1074.795546     0.000000 
  87.820000  1071.000000     0.000934  1072.353826     0.000000 
  87.840000  1033.000000     0.000968  1070.205989     0.000000 
  87.860000  1061.000000     0.000943  1068.320138     0.000000 
  87.880000  1118.000000     0.000894  1066.654583     0.000000 
  87.900000  1063.000000     0.000941  1065.175801     0.000000 
  87.920000  1057.000000     0.000946  1063.856582     0.000000 
  87.940000  1081.000000     0.000925  1062.674642     0.000000 
  87.960000  1070.000000     0.000935  1061.611588     0.000000 
  87.980000  1035.000000     0.000966  1060.652129     0.000000 
  88.000000  1038.000000     0.000963  1059.783470     0.000000 
  88.020000  1035.000000     0.000966  1058.994844     0.000000 
  88.040000  1042.000000     0.000960  1058.277141     0.000000 
  88.060000  1055.000000     0.000948  1057.622621     0.000000 
  88.080000  1063.000000     0.000941  1057.024687     0.000000 
  88.100000  1028.000000     0.000973  1056.477696     0.000000 
  88.120000  1045.000000     0.000957  1055.976819     0.000000 
  88.140000  1049.000000     0.000953  1055.517919     0.000000 
  88.160000  1084.000000     0.000923  1055.097460     0.000000 
  88.180000  1057.000000     0.000946  1054.712433     0.000000 
  88.200000  1057.000000     0.000946  1054.360295     0.000000 
  88.220000  1042.000000     0.000960  1054.038928     0.000000 
  88.240000  1020.000000     0.000980  1053.746606     0.000000 
  88.260000  1020.000000     0.000980  1053.481980     0.000000 
  88.280000  1043.000000     0.000959  1053.244064     0.000000 
  88.300000  1011.000000     0.000989  1053.032247     0.000000 
  88.320000   993.000000     0.001007  1052.846313     0.000000 
  88.340000  1045.000000     0.000957  1052.686481     0.000000 
  88.360000  1090.000000     0.000917  1052.553462     0.000000 
  88.380000  1081.000000     0.000925  1052.448562     0.000000 
  88.400000  1039.000000     0.000962  1052.373808     0.000000 
  88.420000  1031.000000     0.000970  1052.338499     0.000000 
  88.440000  1069.000000     0.000935  1052.334199     0.000000 
  88.460000  1063.000000     0.000941  1052.372910     0.000000 
  88.480000  1116.000000     0.000896  1052.589211     0.000000 
  88.500000  1082.000000     0.000924  1052.745188     0.000000 
  88.520000  1036.000000     0.000965  1052.981453     0.000000 
  88.540000  1059.000000     0.000944  1053.327191     0.000000 
  88.560000  1039.000000     0.000962  1053.835700     0.000000 
  88.580000  1049.000000     0.000953  1054.608477     0.000000 
  88.600000  1073.000000     0.000932  1055.832131     0.000000 
  88.620000  1095.000000     0.000913  1057.815459     0.000000 
  88.640000  1069.000000     0.000935  1060.990888     0.000000 
  88.660000  1016.000000     0.000984  1065.830306     0.000000 
  88.680000  1059.000000     0.000944  1072.641459     0.000000 
  88.700000  1073.000000     0.000932  1081.222867     0.000000 
  88.720000  1146.000000     0.000873  1090.277007     0.000000 
  88.740000  1127.000000     0.000887  1096.758308     0.000000 
  88.760000  1163.000000     0.000860  1095.875236     0.000000 
  88.780000  1209.000000     0.000827  1090.500582     0.000000 
  88.800000  1083.000000     0.000923  1083.034807     0.000000 
  88.820000  1072.000000     0.000933  1076.784874     0.000000 
  88.840000  1129.000000     0.000886  1073.353235     0.000000 
  88.860000  1102.000000     0.000907  1073.208230     0.000000 
  88.880000  1099.000000     0.000910  1076.083090     0.000000 
  88.900000  1112.000000     0.000899  1080.999423     0.000000 
  88.920000  1095.000000     0.000913  1086.008479     0.000000 
  88.940000  1123.000000     0.000890  1088.639501     0.000000 
  88.960000  1117.000000     0.000895  1088.239251     0.000000 
  88.980000  1118.000000     0.000894  1086.617763     0.000000 
  89.000000  1117.000000     0.000895  1085.239668     0.000000 
  89.020000  1114.000000     0.000898  1083.592381     0.000000 
  89.040000  1126.000000     0.000888  1078.880501     0.000000 
  89.060000  1115.000000     0.000897  1073.760811     0.000000 
  89.080000  1081.000000     0.000925  1068.486337     0.000000 
  89.100000  1086.000000     0.000921  1064.387457     0.000000 
  89.120000  1103.000000     0.000907  1062.013818     0.000000 
  89.140000  1089.000000     0.000918  1061.429127     0.000000 
  89.160000  1072.000000     0.000933  1062.377964     0.000000 
  89.180000  1068.000000     0.000936  1064.263316     0.000000 
  89.200000  1066.000000     0.000938  1065.997199     0.000000 
  89.220000  1060.000000     0.000943  1066.217147     0.000000 
  89.240000  1109.000000     0.000902  1064.490641     0.000000 
  89.260000  1121.000000     0.000892  1061.764477     0.000000 
  89.280000  1070.000000     0.000935  1059.120856     0.000000 
  89.300000  1037.000000     0.000964  1057.097648     0.000000 
  89.320000  1066.000000     0.000938  1055.841086     0.000000 
  89.340000  1053.000000     0.000950  1055.287650     0.000000 
  89.360000  1044.000000     0.000958  1055.327290     0.000000 
  89.380000  1062.000000     0.000942  1055.858712     0.000000 
  89.400000  1075.000000     0.000930  1056.843258     0.000000 
  89.420000  1072.000000     0.000933  1058.336608     0.000000 
  89.440000  1097.000000     0.000912  1060.533966     0.000000 
  89.460000  1060.000000     0.000943  1063.856266     0.000000 
  89.480000  1063.000000     0.000941  1069.077000     0.000000 
  89.500000  1082.000000     0.000924  1077.427841     0.000000 
  89.520000  1091.000000     0.000917  1090.544777     0.000000 
  89.540000  1126.000000     0.000888  1110.091764     0.000000 
  89.560000  1112.000000     0.000899  1136.975718     0.000000 
  89.580000  1116.000000     0.000896  1170.088908     0.000000 
  89.600000  1174.000000     0.000852  1204.246142     0.000000 
  89.620000  1247.000000     0.000802  1228.080448     0.000000 
  89.640000  1427.000000     0.000701  1228.813797     0.000000 
  89.660000  1439.000000     0.000695  1206.222037     0.000000 
  89.680000  1330.000000     0.000752  1172.968714     0.000000 
  89.700000  1199.000000     0.000834  1140.654719     0.000000 
  89.720000  1125.000000     0.000889  1114.733645     0.000000 
  89.740000  1065.000000     0.000939  1096.597415     0.000000 
  89.760000  1091.000000     0.000917  1085.732724     0.000000 
  89.780000  1115.000000     0.000897  1081.057756     0.000000 
  89.800000  1023.000000     0.000978  1081.715562     0.000000 
  89.820000  1095.000000     0.000913  1087.309212     0.000000 
  89.840000  1065.000000     0.000939  1097.608738     0.000000 
  89.860000  1077.000000     0.000929  1111.867266     0.000000 
  89.880000  1125.000000     0.000889  1127.745509     0.000000 
  89.900000  1192.000000     0.000839  1140.019613     0.000000 
  89.920000  1181.000000     0.000847  1141.859228     0.000000 
  89.940000  1246.000000     0.000803  1131.486862     0.000000 
  89.960000  1179.000000     0.000848  1114.468939     0.000000 
  89.980000  1132.000000     0.000883  1097.057016     0.000000 
  90.000000  1109.000000     0.000902  1082.460286     0.000000 
  90.020000  1080.000000     0.000926  1071.565347     0.000000 
  90.040000  1093.000000     0.000915  1064.067980     0.000000 
  90.060000  1105.000000     0.000905  1059.170910     0.000000 
  90.080000  1056.000000     0.000947  1056.022756     0.000000 
  90.100000  1027.000000     0.000974  1053.948954     0.000000 
  90.120000  1028.000000     0.000973  1052.506779     0.000000 
  90.140000  1059.000000     0.000944  1051.440827     0.000000 
  90.160000  1077.000000     0.000929  1050.613805     0.000000 
  90.180000  1055.000000     0.000948  1049.952053     0.000000 
  90.200000  1039.000000     0.000962  1049.413490     0.000000 
  90.220000  1033.000000     0.000968  1048.971865     0.000000 
  90.240000  1048.000000     0.000954  1048.609759     0.000000 
  90.260000  1035.000000     0.000966  1048.315648     0.000000 
  90.280000  1035.000000     0.000966  1048.082970     0.000000 
  90.300000  1047.000000     0.000955  1047.910713     0.000000 
  90.320000  1043.000000     0.000959  1047.805832     0.000000 
  90.340000  1017.000000     0.000983  1047.787809     0.000000 
  90.360000  1028.000000     0.000973  1047.894433     0.000000 
  90.380000  1018.000000     0.000982  1048.185244     0.000000 
  90.400000  1034.000000     0.000967  1048.736257     0.000000 
  90.420000  1070.000000     0.000935  1049.614653     0.000000 
  90.440000  1062.000000     0.000942  1050.834573     0.000000 
  90.460000   975.000000     0.001026  1052.375092     0.000000 
  90.480000  1017.000000     0.000983  1053.948889     0.000000 
  90.500000  1068.000000     0.000936  1055.020604     0.000000 
  90.520000  1027.000000     0.000974  1055.002251     0.000000 
  90.540000  1016.000000     0.000984  1053.864637     0.000000 
  90.560000  1038.000000     0.000963  1052.175412     0.000000 
  90.580000  1008.000000     0.000992  1050.490637     0.000000 
  90.600000  1027.000000     0.000974  1049.093990     0.000000 
  90.620000  1051.000000     0.000951  1048.052841     0.000000 
  90.640000  1047.000000     0.000955  1047.399246     0.000000 
  90.660000  1074.000000     0.000931  1047.066043     0.000000 
  90.680000  1058.000000     0.000945  1047.010491     0.000000 
  90.700000  1118.000000     0.000894  1047.207767     0.000000 
  90.720000  1058.000000     0.000945  1047.609883     0.000000 
  90.740000  1012.000000     0.000988  1048.246476     0.000000 
  90.760000  1036.000000     0.000965  1048.987371     0.000000 
  90.780000  1034.000000     0.000967  1049.614700     0.000000 
  90.800000  1064.000000     0.000940  1049.809492     0.000000 
  90.820000   987.000000     0.001013  1049.407258     0.000000 
  90.840000  1014.000000     0.000986  1048.597296     0.000000 
  90.860000  1022.000000     0.000978  1047.689956     0.000000 
  90.880000  1039.000000     0.000962  1046.880349     0.000000 
  90.900000  1062.000000     0.000942  1046.241584     0.000000 
  90.920000  1008.000000     0.000992  1045.756236     0.000000 
  90.940000  1051.000000     0.000951  1045.436182     0.000000 
  90.960000  1081.000000     0.000925  1045.219722     0.000000 
  90.980000  1077.000000     0.000929  1045.070510     0.000000 
  91.000000  1042.000000     0.000960  1044.962253     0.000000 
  91.020000  1041.000000     0.000961  1044.878566     0.000000 
  91.040000  1060.000000     0.000943  1044.810185     0.000000 
  91.060000  1019.000000     0.000981  1044.752071     0.000000 
  91.080000  1028.000000     0.000973  1044.701398     0.000000 
  91.100000  1048.000000     0.000954  1044.656445     0.000000 
  91.120000  1027.000000     0.000974  1044.616055     0.000000 
  91.140000  1039.000000     0.000962  1044.579393     0.000000 
  91.160000  1034.000000     0.000967  1044.545825     0.000000 
  91.180000  1005.000000     0.000995  1044.514862     0.000000 
  91.200000  1015.000000     0.000985  1044.486115     0.000000 
  91.220000  1041.000000     0.000961  1044.459274     0.000000 
  91.240000  1055.000000     0.000948  1044.434086     0.000000 
  91.260000  1046.000000     0.000956  1044.410346     0.000000 
  91.280000  1037.000000     0.000964  1044.581854     0.000000 
  91.300000  1042.000000     0.000960  1044.563935     0.000000 
  91.320000  1034.000000     0.000967  1044.547121     0.000000 
  91.340000  1031.000000     0.000970  1044.531310     0.000000 
  91.360000   994.000000     0.001006  1044.391933     0.000000 
  91.380000  1001.000000     0.000999  1044.381257     0.000000 
  91.400000  1003.000000     0.000997  1044.371231     0.000000 
  91.420000  1017.000000     0.000983  1044.361811     0.000000 
  91.440000  1041.000000     0.000961  1044.352955     0.000000 
  91.460000  1089.000000     0.000918  1044.344631     0.000000 
  91.480000  1052.000000     0.000951  1044.336808     0.000000 
  91.500000  1002.000000     0.000998  1044.329461     0.000000 
  91.520000  1012.000000     0.000988  1044.322570     0.000000 
  91.540000  1015.000000     0.000985  1044.316115     0.000000 
  91.560000  1020.000000     0.000980  1044.310082     0.000000 
  91.580000  1016.000000     0.000984  1044.304457     0.000000 
  91.600000  1048.000000     0.000954  1044.299229     0.000000 
  91.620000  1064.000000     0.000940  1044.294389     0.000000 
  91.640000  1051.000000     0.000951  1044.289930     0.000000 
  91.660000   962.000000     0.001040  1044.285847     0.000000 
  91.680000  1031.000000     0.000970  1044.158107     0.000000 
  91.700000  1044.000000     0.000958  1044.157145     0.000000 
  91.720000  1087.000000     0.000920  1044.156482     0.000000 
  91.740000  1028.000000     0.000973  1044.156119     0.000000 
  91.760000  1031.000000     0.000970  1044.156062     0.000000 
  91.780000  1053.000000     0.000950  1044.156313     0.000000 
  91.800000  1034.000000     0.000967  1044.156878     0.000000 
  91.820000  1035.000000     0.000966  1044.157763     0.000000 
  91.840000  1044.000000     0.000958  1044.158977     0.000000 
  91.860000  1027.000000     0.000974  1044.160527     0.000000 
  91.880000  1037.000000     0.000964  1044.162422     0.000000 
  91.900000  1039.000000     0.000962  1044.164673     0.000000 
  91.920000  1017.000000     0.000983  1044.167291     0.000000 
  91.940000  1021.000000     0.000979  1044.170290     0.000000 
  91.960000  1070.000000     0.000935  1044.173681     0.000000 
  91.980000  1035.000000     0.000966  1044.177481     0.000000 
  92.000000  1001.000000     0.000999  1044.181705     0.000000 
  92.020000  1029.000000     0.000972  1044.186370     0.000000 
  92.040000  1016.000000     0.000984  1044.191496     0.000000 
  92.060000  1063.000000     0.000941  1044.197101     0.000000 
  92.080000  1059.000000     0.000944  1044.203209     0.000000 
  92.100000  1041.000000     0.000961  1044.209843     0.000000 
  92.120000  1039.000000     0.000962  1044.217027     0.000000 
  92.140000  1022.000000     0.000978  1044.224788     0.000000 
  92.160000  1050.000000     0.000952  1044.233157     0.000000 
  92.180000  1065.000000     0.000939  1044.242164     0.000000 
  92.200000  1035.000000     0.000966  1044.251843     0.000000 
  92.220000  1044.000000     0.000958  1044.262230     0.000000 
  92.240000  1042.000000     0.000960  1044.273366     0.000000 
  92.260000  1052.000000     0.000951  1044.479477     0.000000 
  92.280000  1122.000000     0.000891  1044.493334     0.000000 
  92.300000  1057.000000     0.000946  1044.509627     0.000000 
  92.320000  1023.000000     0.000978  1044.657670     0.000000 
  92.340000  1037.000000     0.000964  1044.681005     0.000000 
  92.360000  1058.000000     0.000945  1044.705662     0.000000 
  92.380000  1032.000000     0.000969  1044.731724     0.000000 
  92.400000  1019.000000     0.000981  1044.759278     0.000000 
  92.420000  1028.000000     0.000973  1044.788421     0.000000 
  92.440000  1034.000000     0.000967  1044.819256     0.000000 
  92.460000  1055.000000     0.000948  1044.851895     0.000000 
  92.480000  1049.000000     0.000953  1044.886461     0.000000 
  92.500000  1023.000000     0.000978  1044.923087     0.000000 
  92.520000  1072.000000     0.000933  1044.961918     0.000000 
  92.540000  1061.000000     0.000943  1045.003113     0.000000 
  92.560000  1039.000000     0.000962  1045.046846     0.000000 
  92.580000  1066.000000     0.000938  1045.093307     0.000000 
  92.600000  1070.000000     0.000935  1045.142705     0.000000 
  92.620000  1012.000000     0.000988  1045.189028     0.000000 
  92.640000  1018.000000     0.000982  1045.245131     0.000000 
  92.660000  1005.000000     0.000995  1045.304932     0.000000 
  92.680000  1010.000000     0.000990  1045.368740     0.000000 
  92.700000  1033.000000     0.000968  1045.436900     0.000000 
  92.720000  1049.000000     0.000953  1045.509794     0.000000 
  92.740000  1035.000000     0.000966  1045.587847     0.000000 
  92.760000  1076.000000     0.000929  1045.671536     0.000000 
  92.780000  1068.000000     0.000936  1045.761393     0.000000 
  92.800000  1029.000000     0.000972  1045.858018     0.000000 
  92.820000  1019.000000     0.000981  1045.962083     0.000000 
  92.840000   989.000000     0.001011  1046.074351     0.000000 
  92.860000  1026.000000     0.000975  1046.195684     0.000000 
  92.880000  1056.000000     0.000947  1046.327064     0.000000 
  92.900000  1049.000000     0.000953  1046.469610     0.000000 
  92.920000  1010.000000     0.000990  1046.624604     0.000000 
  92.940000  1051.000000     0.000951  1046.793520     0.000000 
  92.960000  1021.000000     0.000979  1046.978058     0.000000 
  92.980000  1045.000000     0.000957  1047.180191     0.000000 
  93.000000  1001.000000     0.000999  1047.402216     0.000000 
  93.020000  1042.000000     0.000960  1047.646819     0.000000 
  93.040000  1060.000000     0.000943  1047.917164     0.000000 
  93.060000  1015.000000     0.000985  1048.216990     0.000000 
  93.080000  1034.000000     0.000967  1048.550746     0.000000 
  93.100000  1030.000000     0.000971  1048.923759     0.000000 
  93.120000  1040.000000     0.000962  1049.342450     0.000000 
  93.140000  1035.000000     0.000966  1049.814610     0.000000 
  93.160000  1035.000000     0.000966  1050.349771     0.000000 
  93.180000  1019.000000     0.000981  1050.959689     0.000000 
  93.200000  1061.000000     0.000943  1051.658992     0.000000 
  93.220000  1072.000000     0.000933  1052.466081     0.000000 
  93.240000  1061.000000     0.000943  1053.404419     0.000000 
  93.260000  1046.000000     0.000956  1054.504542     0.000000 
  93.280000  1053.000000     0.000950  1055.807601     0.000000 
  93.300000  1060.000000     0.000943  1057.372284     0.000000 
  93.320000  1077.000000     0.000929  1059.289173     0.000000 
  93.340000  1076.000000     0.000929  1061.838796     0.000000 
  93.360000  1032.000000     0.000969  1065.033539     0.000000 
  93.380000  1058.000000     0.000945  1069.470553     0.000000 
  93.400000  1048.000000     0.000954  1075.942249     0.000000 
  93.420000  1021.000000     0.000979  1085.668105     0.000000 
  93.440000  1036.000000     0.000965  1100.303449     0.000000 
  93.460000  1052.000000     0.000951  1121.737591     0.000000 
  93.480000  1088.000000     0.000919  1151.599405     0.000000 
  93.500000  1165.000000     0.000858  1190.470329     0.000000 
  93.520000  1162.000000     0.000861  1236.807686     0.000000 
  93.540000  1245.000000     0.000803  1285.399575     0.000000 
  93.560000  1379.000000     0.000725  1325.631870     0.000000 
  93.580000  1598.000000     0.000626  1343.178942     0.000000 
  93.600000  1770.000000     0.000565  1330.016102     0.000000 
  93.620000  1877.000000     0.000533  1292.875583     0.000000 
  93.640000  1592.000000     0.000628  1246.112595     0.000000 
  93.660000  1385.000000     0.000722  1201.057763     0.000000 
  93.680000  1287.000000     0.000777  1163.634715     0.000000 
  93.700000  1197.000000     0.000835  1136.050158     0.000000 
  93.720000  1140.000000     0.000877  1118.455353     0.000000 
  93.740000  1111.000000     0.000900  1110.079093     0.000000 
  93.760000  1083.000000     0.000923  1109.968864     0.000000 
  93.780000  1055.000000     0.000948  1117.301888     0.000000 
  93.800000  1097.000000     0.000912  1131.250339     0.000000 
  93.820000  1116.000000     0.000896  1150.484617     0.000000 
  93.840000  1185.000000     0.000844  1172.358650     0.000000 
  93.860000  1241.000000     0.000806  1191.877461     0.000000 
  93.880000  1371.000000     0.000729  1201.824914     0.000000 
  93.900000  1422.000000     0.000703  1196.889777     0.000000 
  93.920000  1426.000000     0.000701  1178.858139     0.000000 
  93.940000  1348.000000     0.000742  1154.579259     0.000000 
  93.960000  1259.000000     0.000794  1130.183533     0.000000 
  93.980000  1207.000000     0.000829  1109.031560     0.000000 
  94.000000  1146.000000     0.000873  1092.357822     0.000000 
  94.020000  1089.000000     0.000918  1080.127479     0.000000 
  94.040000  1082.000000     0.000924  1071.633382     0.000000 
  94.060000  1069.000000     0.000935  1065.931711     0.000000 
  94.080000  1072.000000     0.000933  1062.136348     0.000000 
  94.100000  1040.000000     0.000962  1059.562626     0.000000 
  94.120000  1026.000000     0.000975  1057.749603     0.000000 
  94.140000  1046.000000     0.000956  1056.416518     0.000000 
  94.160000  1048.000000     0.000954  1055.402746     0.000000 
  94.180000  1070.000000     0.000935  1054.618099     0.000000 
  94.200000  1067.000000     0.000937  1054.010554     0.000000 
  94.220000  1056.000000     0.000947  1053.548364     0.000000 
  94.240000  1041.000000     0.000961  1053.211117     0.000000 
  94.260000  1084.000000     0.000923  1052.985520     0.000000 
  94.280000  1074.000000     0.000931  1052.863396     0.000000 
  94.300000  1097.000000     0.000912  1052.840739     0.000000 
  94.320000  1074.000000     0.000931  1052.917302     0.000000 
  94.340000  1063.000000     0.000941  1053.096543     0.000000 
  94.360000  1063.000000     0.000941  1053.385914     0.000000 
  94.380000  1044.000000     0.000958  1053.797567     0.000000 
  94.400000  1095.000000     0.000913  1054.349801     0.000000 
  94.420000  1064.000000     0.000940  1055.069999     0.000000 
  94.440000  1070.000000     0.000935  1056.000721     0.000000 
  94.460000  1032.000000     0.000969  1057.212181     0.000000 
  94.480000  1040.000000     0.000962  1058.826152     0.000000 
  94.500000  1062.000000     0.000942  1061.057014     0.000000 
  94.520000  1047.000000     0.000955  1064.271796     0.000000 
  94.540000  1078.000000     0.000928  1069.058631     0.000000 
  94.560000  1089.000000     0.000918  1076.271297     0.000000 
  94.580000  1025.000000     0.000976  1086.994898     0.000000 
  94.600000  1042.000000     0.000960  1102.373694     0.000000 
  94.620000  1087.000000     0.000920  1123.272393     0.000000 
  94.640000  1066.000000     0.000938  1149.785974     0.000000 
  94.660000  1149.000000     0.000870  1180.591736     0.000000 
  94.680000  1129.000000     0.000886  1212.041545     0.000000 
  94.700000  1211.000000     0.000826  1237.292355     0.000000 
  94.720000  1396.000000     0.000716  1247.705576     0.000000 
  94.740000  1466.000000     0.000682  1238.811473     0.000000 
  94.760000  1431.000000     0.000699  1214.801883     0.000000 
  94.780000  1305.000000     0.000766  1184.364968     0.000000 
  94.800000  1219.000000     0.000820  1154.525819     0.000000 
  94.820000  1147.000000     0.000872  1129.218949     0.000000 
  94.840000  1109.000000     0.000902  1110.081658     0.000000 
  94.860000  1067.000000     0.000937  1097.967929     0.000000 
  94.880000  1107.000000     0.000903  1091.446886     0.000000 
  94.900000  1122.000000     0.000891  1090.487010     0.000000 
  94.920000  1095.000000     0.000913  1094.526931     0.000000 
  94.940000  1091.000000     0.000917  1102.981857     0.000000 
  94.960000  1065.000000     0.000939  1115.002693     0.000000 
  94.980000  1085.000000     0.000922  1129.053355     0.000000 
  95.000000  1145.000000     0.000873  1142.339061     0.000000 
  95.020000  1181.000000     0.000847  1150.643483     0.000000 
  95.040000  1185.000000     0.000844  1150.114412     0.000000 
  95.060000  1175.000000     0.000851  1140.537782     0.000000 
  95.080000  1176.000000     0.000850  1125.500763     0.000000 
  95.100000  1164.000000     0.000859  1109.144441     0.000000 
  95.120000  1099.000000     0.000910  1094.148634     0.000000 
  95.140000  1063.000000     0.000941  1081.748046     0.000000 
  95.160000  1072.000000     0.000933  1072.235839     0.000000 
  95.180000  1084.000000     0.000923  1065.353249     0.000000 
  95.200000  1111.000000     0.000900  1060.574708     0.000000 
  95.220000  1117.000000     0.000895  1057.320766     0.000000 
  95.240000  1045.000000     0.000957  1055.090238     0.000000 
  95.260000  1054.000000     0.000949  1053.512586     0.000000 
  95.280000  1076.000000     0.000929  1052.343644     0.000000 
  95.300000  1038.000000     0.000963  1051.435155     0.000000 
  95.320000  1069.000000     0.000935  1050.701054     0.000000 
  95.340000  1007.000000     0.000993  1050.091396     0.000000 
  95.360000  1039.000000     0.000962  1049.575852     0.000000 
  95.380000  1049.000000     0.000953  1049.134568     0.000000 
  95.400000  1017.000000     0.000983  1048.753514     0.000000 
  95.420000  1049.000000     0.000953  1048.422187     0.000000 
  95.440000  1035.000000     0.000966  1048.132432     0.000000 
  95.460000  1036.000000     0.000965  1047.877782     0.000000 
  95.480000  1029.000000     0.000972  1047.653031     0.000000 
  95.500000  1084.000000     0.000923  1047.453950     0.000000 
  95.520000  1067.000000     0.000937  1047.277068     0.000000 
  95.540000  1046.000000     0.000956  1046.932197     0.000000 
  95.560000  1078.000000     0.000928  1046.796035     0.000000 
  95.580000  1042.000000     0.000960  1046.674669     0.000000 
  95.600000  1016.000000     0.000984  1046.566426     0.000000 
  95.620000  1035.000000     0.000966  1046.469887     0.000000 
  95.640000  1052.000000     0.000951  1046.383850     0.000000 
  95.660000  1061.000000     0.000943  1046.307285     0.000000 
  95.680000  1037.000000     0.000964  1046.239313     0.000000 
  95.700000  1016.000000     0.000984  1046.179178     0.000000 
  95.720000  1035.000000     0.000966  1046.126226     0.000000 
  95.740000  1039.000000     0.000962  1046.079898     0.000000 
  95.760000  1060.000000     0.000943  1046.039705     0.000000 
  95.780000  1045.000000     0.000957  1046.005231     0.000000 
  95.800000  1069.000000     0.000935  1045.976111     0.000000 
  95.820000  1031.000000     0.000970  1045.952034     0.000000 
  95.840000  1016.000000     0.000984  1045.932731     0.000000 
  95.860000  1052.000000     0.000951  1045.937563     0.000000 
  95.880000  1040.000000     0.000962  1045.927588     0.000000 
  95.900000  1000.000000     0.001000  1045.921814     0.000000 
  95.920000  1011.000000     0.000989  1045.732368     0.000000 
  95.940000  1047.000000     0.000955  1046.248830     0.000000 
  95.960000  1067.000000     0.000937  1046.296796     0.000000 
  95.980000  1044.000000     0.000958  1046.321935     0.000000 
  96.000000  1043.000000     0.000959  1046.351177     0.000000 
  96.020000  1022.000000     0.000978  1046.384519     0.000000 
  96.040000  1059.000000     0.000944  1046.421980     0.000000 
  96.060000  1052.000000     0.000951  1046.463597     0.000000 
  96.080000  1039.000000     0.000962  1046.509427     0.000000 
  96.100000  1035.000000     0.000966  1046.559544     0.000000 
  96.120000  1050.000000     0.000952  1046.614044     0.000000 
  96.140000  1052.000000     0.000951  1046.673039     0.000000 
  96.160000  1045.000000     0.000957  1046.736664     0.000000 
  96.180000  1047.000000     0.000955  1046.805074     0.000000 
  96.200000  1016.000000     0.000984  1046.878445     0.000000 
  96.220000  1026.000000     0.000975  1046.956975     0.000000 
  96.240000  1046.000000     0.000956  1047.040887     0.000000 
  96.260000  1004.000000     0.000996  1047.130431     0.000000 
  96.280000  1060.000000     0.000943  1047.225881     0.000000 
  96.300000  1051.000000     0.000951  1047.327544     0.000000 
  96.320000  1026.000000     0.000975  1047.435758     0.000000 
  96.340000  1032.000000     0.000969  1047.550895     0.000000 
  96.360000   982.000000     0.001018  1047.673367     0.000000 
  96.380000  1060.000000     0.000943  1047.803626     0.000000 
  96.400000  1086.000000     0.000921  1047.942171     0.000000 
  96.420000  1081.000000     0.000925  1048.089552     0.000000 
  96.440000  1100.000000     0.000909  1048.246375     0.000000 
  96.460000  1047.000000     0.000955  1048.413308     0.000000 
  96.480000  1003.000000     0.000997  1048.591090     0.000000 
  96.500000   988.000000     0.001012  1048.780538     0.000000 
  96.520000  1047.000000     0.000955  1048.982553     0.000000 
  96.540000  1076.000000     0.000929  1049.198138     0.000000 
  96.560000  1115.000000     0.000897  1049.428404     0.000000 
  96.580000  1025.000000     0.000976  1049.674589     0.000000 
  96.600000  1068.000000     0.000936  1049.938070     0.000000 
  96.620000  1108.000000     0.000903  1050.220388     0.000000 
  96.640000  1064.000000     0.000940  1050.523265     0.000000 
  96.660000  1008.000000     0.000992  1050.848634     0.000000 
  96.680000  1067.000000     0.000937  1051.198670     0.000000 
  96.700000  1085.000000     0.000922  1051.575825     0.000000 
  96.720000  1071.000000     0.000934  1051.982873     0.000000 
  96.740000  1030.000000     0.000971  1052.296821     0.000000 
  96.760000  1051.000000     0.000951  1052.776424     0.000000 
  96.780000  1066.000000     0.000938  1053.296639     0.000000 
  96.800000  1012.000000     0.000988  1053.862156     0.000000 
  96.820000  1040.000000     0.000962  1054.478370     0.000000 
  96.840000  1058.000000     0.000945  1055.151512     0.000000 
  96.860000  1072.000000     0.000933  1055.888805     0.000000 
  96.880000  1048.000000     0.000954  1056.698666     0.000000 
  96.900000  1026.000000     0.000975  1057.590946     0.000000 
  96.920000  1028.000000     0.000973  1058.577236     0.000000 
  96.940000  1062.000000     0.000942  1059.671246     0.000000 
  96.960000  1024.000000     0.000977  1060.889286     0.000000 
  96.980000  1021.000000     0.000979  1062.250908     0.000000 
  97.000000  1035.000000     0.000966  1063.779659     0.000000 
  97.020000  1077.000000     0.000929  1065.504171     0.000000 
  97.040000  1094.000000     0.000914  1067.459642     0.000000 
  97.060000  1097.000000     0.000912  1069.689974     0.000000 
  97.080000  1111.000000     0.000900  1072.251100     0.000000 
  97.100000  1063.000000     0.000941  1075.216480     0.000000 
  97.120000  1040.000000     0.000962  1078.686617     0.000000 
  97.140000  1048.000000     0.000954  1082.679809     0.000000 
  97.160000  1064.000000     0.000940  1087.667900     0.000000 
  97.180000  1090.000000     0.000917  1093.864167     0.000000 
  97.200000  1089.000000     0.000918  1101.815203     0.000000 
  97.220000  1069.000000     0.000935  1112.393964     0.000000 
  97.240000  1062.000000     0.000942  1126.958621     0.000000 
  97.260000  1095.000000     0.000913  1147.520155     0.000000 
  97.280000  1067.000000     0.000937  1176.844250     0.000000 
  97.300000  1091.000000     0.000917  1218.359035     0.000000 
  97.320000  1111.000000     0.000900  1275.709428     0.000000 
  97.340000  1145.000000     0.000873  1351.850773     0.000000 
  97.360000  1190.000000     0.000840  1447.782337     0.000000 
  97.380000  1358.000000     0.000736  1561.278985     0.000000 
  97.400000  1452.000000     0.000689  1685.607401     0.000000 
  97.420000  1559.000000     0.000641  1807.235835     0.000000 
  97.440000  1727.000000     0.000579  1903.322877     0.000000 
  97.460000  2051.000000     0.000488  1945.896018     0.000000 
  97.480000  2471.000000     0.000405  1918.730383     0.000000 
  97.500000  2863.000000     0.000349  1831.930673     0.000000 
  97.520000  2450.000000     0.000408  1713.324630     0.000000 
  97.540000  1964.000000     0.000509  1589.642213     0.000000 
  97.560000  1632.000000     0.000613  1478.310306     0.000000 
  97.580000  1427.000000     0.000701  1388.471217     0.000000 
  97.600000  1333.000000     0.000750  1323.786883     0.000000 
  97.620000  1208.000000     0.000828  1284.590212     0.000000 
  97.640000  1165.000000     0.000858  1269.396312     0.000000 
  97.660000  1192.000000     0.000839  1275.853690     0.000000 
  97.680000  1219.000000     0.000820  1301.081949     0.000000 
  97.700000  1255.000000     0.000797  1341.508418     0.000000 
  97.720000  1282.000000     0.000780  1392.376372     0.000000 
  97.740000  1324.000000     0.000755  1446.668119     0.000000 
  97.760000  1437.000000     0.000696  1493.465335     0.000000 
  97.780000  1544.000000     0.000648  1518.374538     0.000000 
  97.800000  1733.000000     0.000577  1510.156599     0.000000 
  97.820000  1863.000000     0.000537  1469.682178     0.000000 
  97.840000  1841.000000     0.000543  1409.095831     0.000000 
  97.860000  1651.000000     0.000606  1342.396532     0.000000 
  97.880000  1431.000000     0.000699  1279.376244     0.000000 
  97.900000  1308.000000     0.000765  1225.200542     0.000000 
  97.920000  1213.000000     0.000824  1181.744179     0.000000 
  97.940000  1156.000000     0.000865  1148.766388     0.000000 
  97.960000  1129.000000     0.000886  1125.037166     0.000000 
  97.980000  1107.000000     0.000903  1108.119232     0.000000 
  98.000000  1100.000000     0.000909  1096.294087     0.000000 
  98.020000  1115.000000     0.000897  1087.937704     0.000000 
  98.040000  1110.000000     0.000901  1081.853243     0.000000 
  98.060000  1081.000000     0.000925  1077.237193     0.000000 
  98.080000  1068.000000     0.000936  1073.585096     0.000000 
  98.100000  1039.000000     0.000962  1070.592581     0.000000 
  98.120000  1058.000000     0.000945  1068.076815     0.000000 
  98.140000  1098.000000     0.000911  1065.924287     0.000000 
  98.160000  1088.000000     0.000919  1064.060087     0.000000 
  98.180000  1081.000000     0.000925  1062.431233     0.000000 
  98.200000  1081.000000     0.000925  1060.998000     0.000000 
  98.220000  1067.000000     0.000937  1059.729374     0.000000 
  98.240000  1030.000000     0.000971  1058.600523     0.000000 
  98.260000  1032.000000     0.000969  1057.591248     0.000000 
  98.280000  1038.000000     0.000963  1056.684944     0.000000 
  98.300000  1049.000000     0.000953  1055.867833     0.000000 
  98.320000  1042.000000     0.000960  1055.128407     0.000000 
  98.340000  1045.000000     0.000957  1054.456988     0.000000 
  98.360000  1072.000000     0.000933  1053.845388     0.000000 
  98.380000  1066.000000     0.000938  1053.286637     0.000000 
  98.400000  1070.000000     0.000935  1052.774772     0.000000 
  98.420000  1053.000000     0.000950  1052.304666     0.000000 
  98.440000  1057.000000     0.000946  1051.871890     0.000000 
  98.460000  1080.000000     0.000926  1051.472599     0.000000 
  98.480000  1067.000000     0.000937  1051.103444     0.000000 
  98.500000  1039.000000     0.000962  1050.761493     0.000000 
  98.520000  1044.000000     0.000958  1050.444174     0.000000 
  98.540000  1077.000000     0.000929  1050.149219     0.000000 
  98.560000  1095.000000     0.000913  1049.874622     0.000000 
  98.580000  1074.000000     0.000931  1049.618606     0.000000 
  98.600000  1025.000000     0.000976  1049.379589     0.000000 
  98.620000  1003.000000     0.000997  1049.156160     0.000000 
  98.640000  1040.000000     0.000962  1048.947057     0.000000 
  98.660000  1057.000000     0.000946  1048.751150     0.000000 
  98.680000  1046.000000     0.000956  1048.567422     0.000000 
  98.700000  1071.000000     0.000934  1048.394957     0.000000 
  98.720000  1063.000000     0.000941  1048.232928     0.000000 
  98.740000  1076.000000     0.000929  1048.080589     0.000000 
  98.760000  1090.000000     0.000917  1047.937263     0.000000 
  98.780000  1056.000000     0.000947  1047.802334     0.000000 
  98.800000  1048.000000     0.000954  1047.675244     0.000000 
  98.820000  1023.000000     0.000978  1047.555485     0.000000 
  98.840000  1028.000000     0.000973  1047.442593     0.000000 
  98.860000  1068.000000     0.000936  1047.336145     0.000000 
  98.880000  1023.000000     0.000978  1047.235753     0.000000 
  98.900000  1022.000000     0.000978  1047.141065     0.000000 
  98.920000  1034.000000     0.000967  1047.051756     0.000000 
  98.940000  1053.000000     0.000950  1046.967529     0.000000 
  98.960000  1024.000000     0.000977  1046.888113     0.000000 
  98.980000  1044.000000     0.000958  1046.813257     0.000000 
  99.000000  1078.000000     0.000928  1046.742734     0.000000 
  99.020000  1076.000000     0.000929  1046.676332     0.000000 
  99.040000  1049.000000     0.000953  1046.613860     0.000000 
  99.060000  1050.000000     0.000952  1046.555140     0.000000 
  99.080000  1090.000000     0.000917  1046.500012     0.000000 
  99.100000  1071.000000     0.000934  1046.448327     0.000000 
  99.120000  1055.000000     0.000948  1046.399951     0.000000 
  99.140000  1039.000000     0.000962  1046.587641     0.000000 
  99.160000  1045.000000     0.000957  1046.550156     0.000000 
  99.180000  1066.000000     0.000938  1046.826315     0.000000 
  99.200000  1026.000000     0.000975  1046.799148     0.000000 
  99.220000  1059.000000     0.000944  1046.775015     0.000000 
  99.240000  1067.000000     0.000937  1046.753853     0.000000 
  99.260000  1003.000000     0.000997  1046.735606     0.000000 
  99.280000  1024.000000     0.000977  1046.720227     0.000000 
  99.300000  1030.000000     0.000971  1046.707679     0.000000 
  99.320000  1047.000000     0.000955  1046.697931     0.000000 
  99.340000  1026.000000     0.000975  1046.690962     0.000000 
  99.360000   993.000000     0.001007  1046.686759     0.000000 
  99.380000  1052.000000     0.000951  1046.685315     0.000000 
  99.400000  1057.000000     0.000946  1046.686633     0.000000 
  99.420000  1006.000000     0.000994  1046.690725     0.000000 
  99.440000  1040.000000     0.000962  1046.697608     0.000000 
  99.460000  1053.000000     0.000950  1046.707311     0.000000 
  99.480000  1059.000000     0.000944  1046.719870     0.000000 
  99.500000  1058.000000     0.000945  1046.735329     0.000000 
  99.520000  1037.000000     0.000964  1046.753744     0.000000 
  99.540000  1023.000000     0.000978  1046.775180     0.000000 
  99.560000  1051.000000     0.000951  1046.780453     0.000000 
  99.580000  1049.000000     0.000953  1046.808571     0.000000 
  99.600000  1060.000000     0.000943  1046.839955     0.000000 
  99.620000  1026.000000     0.000975  1046.874715     0.000000 
  99.640000  1012.000000     0.000988  1046.376488     0.000000 
  99.660000  1117.000000     0.000895  1046.429766     0.000000 
  99.680000  1066.000000     0.000938  1046.486479     0.000000 
  99.700000  1040.000000     0.000962  1046.546811     0.000000 
  99.720000  1074.000000     0.000931  1046.610966     0.000000 
  99.740000  1049.000000     0.000953  1046.679168     0.000000 
  99.760000  1046.000000     0.000956  1046.751660     0.000000 
  99.780000  1068.000000     0.000936  1046.828711     0.000000 
  99.800000  1058.000000     0.000945  1046.910614     0.000000 
  99.820000  1050.000000     0.000952  1046.997695     0.000000 
  99.840000  1046.000000     0.000956  1047.090308     0.000000 
  99.860000  1002.000000     0.000998  1047.188847     0.000000 
  99.880000  1020.000000     0.000980  1047.293745     0.000000 
  99.900000  1027.000000     0.000974  1047.405481     0.000000 
  99.920000  1046.000000     0.000956  1047.524585     0.000000 
  99.940000  1053.000000     0.000950  1047.651646     0.000000 
  99.960000  1060.000000     0.000943  1047.787319     0.000000 
  99.980000  1042.000000     0.000960  1047.932331     0.000000 
 100.000000  1018.000000     0.000982  1048.068152     0.000000 
 100.020000  1064.000000     0.000940  1048.234671     0.000000 
 100.040000  1051.000000     0.000951  1048.413265     0.000000 
 100.060000  1040.000000     0.000962  1048.605083     0.000000 
 100.080000  1031.000000     0.000970  1048.273868     0.000000 
 100.100000  1042.000000     0.000960  1048.504296     0.000000 
 100.120000  1050.000000     0.000952  1048.752181     0.000000 
 100.140000  1023.000000     0.000978  1049.019415     0.000000 
 100.160000  1040.000000     0.000962  1049.308159     0.000000 
 100.180000  1077.000000     0.000929  1049.620887     0.000000 
 100.200000  1077.000000     0.000929  1049.960443     0.000000 
 100.220000  1005.000000     0.000995  1050.330110     0.000000 
 100.240000  1033.000000     0.000968  1050.733693     0.000000 
 100.260000  1064.000000     0.000940  1051.175624     0.000000 
 100.280000  1055.000000     0.000948  1051.661088     0.000000 
 100.300000  1049.000000     0.000953  1052.196178     0.000000 
 100.320000  1010.000000     0.000990  1052.788102     0.000000 
 100.340000  1039.000000     0.000962  1053.445424     0.000000 
 100.360000  1019.000000     0.000981  1054.178397     0.000000 
 100.380000  1062.000000     0.000942  1054.999392     0.000000 
 100.400000  1069.000000     0.000935  1055.923491     0.000000 
 100.420000  1054.000000     0.000949  1057.281839     0.000000 
 100.440000  1049.000000     0.000953  1058.479291     0.000000 
 100.460000  1038.000000     0.000963  1059.853871     0.000000 
 100.480000  1059.000000     0.000944  1061.449278     0.000000 
 100.500000  1004.000000     0.000996  1063.330074     0.000000 
 100.520000  1053.000000     0.000950  1065.596797     0.000000 
 100.540000  1080.000000     0.000926  1068.410951     0.000000 
 100.560000  1056.000000     0.000947  1072.032741     0.000000 
 100.580000  1044.000000     0.000958  1076.871417     0.000000 
 100.600000  1074.000000     0.000931  1083.541272     0.000000 
 100.620000  1072.000000     0.000933  1092.905729     0.000000 
 100.640000  1080.000000     0.000926  1106.080209     0.000000 
 100.660000  1102.000000     0.000907  1124.358103     0.000000 
 100.680000  1062.000000     0.000942  1149.030774     0.000000 
 100.700000  1146.000000     0.000873  1181.095174     0.000000 
 100.720000  1107.000000     0.000903  1220.870355     0.000000 
 100.740000  1163.000000     0.000860  1267.623014     0.000000 
 100.760000  1234.000000     0.000810  1318.733115     0.000000 
 100.780000  1267.000000     0.000789  1369.478382     0.000000 
 100.800000  1421.000000     0.000704  1412.251362     0.000000 
 100.820000  1627.000000     0.000615  1437.657558     0.000000 
 100.840000  1854.000000     0.000539  1438.583119     0.000000 
 100.860000  2000.000000     0.000500  1415.058775     0.000000 
 100.880000  1835.000000     0.000545  1374.280759     0.000000 
 100.900000  1589.000000     0.000629  1325.776944     0.000000 
 100.920000  1409.000000     0.000710  1277.357247     0.000000 
 100.940000  1247.000000     0.000802  1234.111417     0.000000 
 100.960000  1182.000000     0.000846  1198.919060     0.000000 
 100.980000  1165.000000     0.000858  1173.121984     0.000000 
 101.000000  1132.000000     0.000883  1157.036206     0.000000 
 101.020000  1085.000000     0.000922  1150.327904     0.000000 
 101.040000  1066.000000     0.000938  1152.266613     0.000000 
 101.060000  1105.000000     0.000905  1161.837678     0.000000 
 101.080000  1155.000000     0.000866  1177.706922     0.000000 
 101.100000  1163.000000     0.000860  1198.042389     0.000000 
 101.120000  1175.000000     0.000851  1220.196624     0.000000 
 101.140000  1231.000000     0.000812  1240.353629     0.000000 
 101.160000  1274.000000     0.000785  1253.667671     0.000000 
 101.180000  1372.000000     0.000729  1255.799912     0.000000 
 101.200000  1437.000000     0.000696  1245.476334     0.000000 
 101.220000  1427.000000     0.000701  1225.364557     0.000000 
 101.240000  1384.000000     0.000723  1200.074825     0.000000 
 101.260000  1257.000000     0.000796  1173.759276     0.000000 
 101.280000  1146.000000     0.000873  1149.196458     0.000000 
 101.300000  1113.000000     0.000898  1127.909481     0.000000 
 101.320000  1122.000000     0.000891  1110.502916     0.000000 
 101.340000  1120.000000     0.000893  1096.948036     0.000000 
 101.360000  1111.000000     0.000900  1086.817031     0.000000 
 101.380000  1103.000000     0.000907  1079.484758     0.000000 
 101.400000  1080.000000     0.000926  1074.289456     0.000000 
 101.420000  1058.000000     0.000945  1070.639179     0.000000 
 101.440000  1044.000000     0.000958  1068.062886     0.000000 
 101.460000  1066.000000     0.000938  1066.218208     0.000000 
 101.480000  1098.000000     0.000911  1064.873591     0.000000 
 101.500000  1080.000000     0.000926  1063.880818     0.000000 
 101.520000  1078.000000     0.000928  1063.148459     0.000000 
 101.540000  1000.000000     0.001000  1062.621090     0.000000 
 101.560000  1038.000000     0.000963  1062.265112     0.000000 
 101.580000  1078.000000     0.000928  1062.060018     0.000000 
 101.600000  1013.000000     0.000987  1061.993429     0.000000 
 101.620000  1041.000000     0.000961  1062.058443     0.000000 
 101.640000  1066.000000     0.000938  1062.252308     0.000000 
 101.660000  1054.000000     0.000949  1062.575802     0.000000 
 101.680000  1056.000000     0.000947  1063.033041     0.000000 
 101.700000  1083.000000     0.000923  1063.631554     0.000000 
 101.720000  1061.000000     0.000943  1064.382607     0.000000 
 101.740000  1095.000000     0.000913  1065.301835     0.000000 
 101.760000  1090.000000     0.000917  1066.410354     0.000000 
 101.780000  1051.000000     0.000951  1067.736752     0.000000 
 101.800000  1084.000000     0.000923  1069.320694     0.000000 
 101.820000  1054.000000     0.000949  1071.219525     0.000000 
 101.840000  1112.000000     0.000899  1073.520060     0.000000 
 101.860000  1082.000000     0.000924  1076.358658     0.000000 
 101.880000  1040.000000     0.000962  1079.953108     0.000000 
 101.900000  1025.000000     0.000976  1084.648772     0.000000 
 101.920000  1069.000000     0.000935  1090.977540     0.000000 
 101.940000  1071.000000     0.000934  1099.720368     0.000000 
 101.960000  1088.000000     0.000919  1111.952901     0.000000 
 101.980000  1105.000000     0.000905  1129.042155     0.000000 
 102.000000  1111.000000     0.000900  1152.556811     0.000000 
 102.020000  1097.000000     0.000912  1184.069747     0.000000 
 102.040000  1105.000000     0.000905  1224.865280     0.000000 
 102.060000  1099.000000     0.000910  1275.293590     0.000000 
 102.080000  1143.000000     0.000875  1334.646445     0.000000 
 102.100000  1144.000000     0.000874  1400.330349     0.000000 
 102.120000  1179.000000     0.000848  1467.237147     0.000000 
 102.140000  1313.000000     0.000762  1527.096697     0.000000 
 102.160000  1474.000000     0.000678  1568.951833     0.000000 
 102.180000  1677.000000     0.000596  1582.612962     0.000000 
 102.200000  1862.000000     0.000537  1564.458680     0.000000 
 102.220000  1819.000000     0.000550  1520.063273     0.000000 
 102.240000  1596.000000     0.000627  1460.398695     0.000000 
 102.260000  1412.000000     0.000708  1396.231718     0.000000 
 102.280000  1330.000000     0.000752  1335.446561     0.000000 
 102.300000  1245.000000     0.000803  1282.994267     0.000000 
 102.320000  1187.000000     0.000842  1241.617171     0.000000 
 102.340000  1175.000000     0.000851  1212.504731     0.000000 
 102.360000  1143.000000     0.000875  1195.781667     0.000000 
 102.380000  1116.000000     0.000896  1190.867158     0.000000 
 102.400000  1128.000000     0.000887  1196.702973     0.000000 
 102.420000  1130.000000     0.000885  1211.832121     0.000000 
 102.440000  1155.000000     0.000866  1234.322684     0.000000 
 102.460000  1113.000000     0.000898  1261.535107     0.000000 
 102.480000  1173.000000     0.000853  1289.749261     0.000000 
 102.500000  1167.000000     0.000857  1313.868483     0.000000 
 102.520000  1303.000000     0.000767  1327.940589     0.000000 
 102.540000  1409.000000     0.000710  1327.319833     0.000000 
 102.560000  1461.000000     0.000684  1311.400553     0.000000 
 102.580000  1371.000000     0.000729  1283.937359     0.000000 
 102.600000  1345.000000     0.000743  1250.506668     0.000000 
 102.620000  1279.000000     0.000782  1215.981570     0.000000 
 102.640000  1154.000000     0.000867  1183.665083     0.000000 
 102.660000  1128.000000     0.000887  1155.381603     0.000000 
 102.680000  1097.000000     0.000912  1131.929842     0.000000 
 102.700000  1066.000000     0.000938  1113.336882     0.000000 
 102.720000  1066.000000     0.000938  1099.134832     0.000000 
 102.740000  1045.000000     0.000957  1088.591268     0.000000 
 102.760000  1035.000000     0.000966  1080.899167     0.000000 
 102.780000  1053.000000     0.000950  1075.310247     0.000000 
 102.800000  1060.000000     0.000943  1071.207029     0.000000 
 102.820000  1068.000000     0.000936  1068.123431     0.000000 
 102.840000  1058.000000     0.000945  1065.731640     0.000000 
 102.860000  1069.000000     0.000935  1063.813260     0.000000 
 102.880000  1059.000000     0.000944  1062.227965     0.000000 
 102.900000  1007.000000     0.000993  1060.886893     0.000000 
 102.920000  1007.000000     0.000993  1059.733186     0.000000 
 102.940000  1030.000000     0.000971  1058.729181     0.000000 
 102.960000  1040.000000     0.000962  1057.848621     0.000000 
 102.980000  1038.000000     0.000963  1057.072177     0.000000 
 103.000000  1044.000000     0.000958  1056.384953     0.000000 
 103.020000  1053.000000     0.000950  1055.775084     0.000000 
 103.040000  1048.000000     0.000954  1055.232918     0.000000 
 103.060000  1033.000000     0.000968  1054.750506     0.000000 
 103.080000  1016.000000     0.000984  1054.321257     0.000000 
 103.100000  1035.000000     0.000966  1053.939689     0.000000 
 103.120000  1039.000000     0.000962  1053.601239     0.000000 
 103.140000  1005.000000     0.000995  1053.302118     0.000000 
 103.160000  1035.000000     0.000966  1053.039204     0.000000 
 103.180000  1069.000000     0.000935  1052.809948     0.000000 
 103.200000  1073.000000     0.000932  1052.612308     0.000000 
 103.220000  1048.000000     0.000954  1052.217697     0.000000 
 103.240000  1063.000000     0.000941  1052.079465     0.000000 
 103.260000  1045.000000     0.000957  1051.973172     0.000000 
 103.280000  1035.000000     0.000966  1051.894507     0.000000 
 103.300000  1062.000000     0.000942  1051.843500     0.000000 
 103.320000  1016.000000     0.000984  1051.820587     0.000000 
 103.340000  1018.000000     0.000982  1051.826638     0.000000 
 103.360000  1026.000000     0.000975  1051.863002     0.000000 
 103.380000  1019.000000     0.000981  1051.931570     0.000000 
 103.400000  1041.000000     0.000961  1052.034871     0.000000 
 103.420000  1087.000000     0.000920  1052.176211     0.000000 
 103.440000  1037.000000     0.000964  1052.359888     0.000000 
 103.460000  1054.000000     0.000949  1052.591552     0.000000 
 103.480000  1041.000000     0.000961  1052.982609     0.000000 
 103.500000  1032.000000     0.000969  1053.337429     0.000000 
 103.520000  1077.000000     0.000929  1053.774295     0.000000 
 103.540000  1071.000000     0.000934  1054.317181     0.000000 
 103.560000  1066.000000     0.000938  1055.003531     0.000000 
 103.580000  1126.000000     0.000888  1055.891968     0.000000 
 103.600000  1056.000000     0.000947  1057.072644     0.000000 
 103.620000  1059.000000     0.000944  1058.679370     0.000000 
 103.640000  1082.000000     0.000924  1060.901025     0.000000 
 103.660000  1064.000000     0.000940  1063.987735     0.000000 
 103.680000  1061.000000     0.000943  1068.245572     0.000000 
 103.700000  1061.000000     0.000943  1074.013263     0.000000 
 103.720000  1133.000000     0.000883  1081.385165     0.000000 
 103.740000  1058.000000     0.000945  1091.072311     0.000000 
 103.760000  1043.000000     0.000959  1102.919965     0.000000 
 103.780000  1065.000000     0.000939  1116.747497     0.000000 
 103.800000  1083.000000     0.000923  1132.006319     0.000000 
 103.820000  1123.000000     0.000890  1147.651482     0.000000 
 103.840000  1178.000000     0.000849  1162.017044     0.000000 
 103.860000  1185.000000     0.000844  1172.861033     0.000000 
 103.880000  1251.000000     0.000799  1177.908546     0.000000 
 103.900000  1315.000000     0.000760  1175.931070     0.000000 
 103.920000  1310.000000     0.000763  1167.532971     0.000000 
 103.940000  1249.000000     0.000801  1154.766704     0.000000 
 103.960000  1159.000000     0.000863  1140.032317     0.000000 
 103.980000  1128.000000     0.000887  1125.301863     0.000000 
 104.000000  1117.000000     0.000895  1111.947607     0.000000 
 104.020000  1084.000000     0.000923  1100.778569     0.000000 
 104.040000  1080.000000     0.000926  1092.263197     0.000000 
 104.060000  1059.000000     0.000944  1086.585998     0.000000 
 104.080000  1065.000000     0.000939  1083.701934     0.000000 
 104.100000  1091.000000     0.000917  1083.453668     0.000000 
 104.120000  1105.000000     0.000905  1085.566608     0.000000 
 104.140000  1075.000000     0.000930  1089.666594     0.000000 
 104.160000  1053.000000     0.000950  1095.259526     0.000000 
 104.180000  1104.000000     0.000906  1101.681385     0.000000 
 104.200000  1110.000000     0.000901  1108.028706     0.000000 
 104.220000  1127.000000     0.000887  1113.134864     0.000000 
 104.240000  1139.000000     0.000878  1115.749738     0.000000 
 104.260000  1132.000000     0.000883  1115.019507     0.000000 
 104.280000  1202.000000     0.000832  1110.965356     0.000000 
 104.300000  1177.000000     0.000850  1104.444258     0.000000 
 104.320000  1110.000000     0.000901  1096.632398     0.000000 
 104.340000  1115.000000     0.000897  1088.550475     0.000000 
 104.360000  1077.000000     0.000929  1080.910360     0.000000 
 104.380000  1021.000000     0.000979  1074.132233     0.000000 
 104.400000  1042.000000     0.000960  1068.413469     0.000000 
 104.420000  1058.000000     0.000945  1063.788534     0.000000 
 104.440000   993.000000     0.001007  1060.179931     0.000000 
 104.460000  1045.000000     0.000957  1057.444021     0.000000 
 104.480000  1064.000000     0.000940  1055.410554     0.000000 
 104.500000  1070.000000     0.000935  1053.912654     0.000000 
 104.520000  1067.000000     0.000937  1052.805401     0.000000 
 104.540000  1038.000000     0.000963  1051.973842     0.000000 
 104.560000  1068.000000     0.000936  1051.333133     0.000000 
 104.580000  1056.000000     0.000947  1050.824151     0.000000 
 104.600000  1043.000000     0.000959  1050.407435     0.000000 
 104.620000  1034.000000     0.000967  1050.057335     0.000000 
 104.640000  1048.000000     0.000954  1049.757282     0.000000 
 104.660000  1056.000000     0.000947  1049.188616     0.000000 
 104.680000  1049.000000     0.000953  1048.965215     0.000000 
 104.700000  1061.000000     0.000943  1048.768155     0.000000 
 104.720000  1035.000000     0.000966  1048.593469     0.000000 
 104.740000  1121.000000     0.000892  1048.438049     0.000000 
 104.760000  1040.000000     0.000962  1048.299382     0.000000 
 104.780000  1040.000000     0.000962  1048.175394     0.000000 
 104.800000  1040.000000     0.000962  1048.064348     0.000000 
 104.820000  1028.000000     0.000973  1047.964780     0.000000 
 104.840000  1055.000000     0.000948  1047.875446     0.000000 
 104.860000  1083.000000     0.000923  1047.898574     0.000000 
 104.880000  1075.000000     0.000930  1047.828396     0.000000 
 104.900000  1059.000000     0.000944  1047.765738     0.000000 
 104.920000  1054.000000     0.000949  1047.709926     0.000000 
 104.940000  1066.000000     0.000938  1047.660376     0.000000 
 104.960000  1112.000000     0.000899  1047.616586     0.000000 
 104.980000  1103.000000     0.000907  1047.578120     0.000000 
 105.000000  1059.000000     0.000944  1047.544602     0.000000 
 105.020000  1084.000000     0.000923  1047.515707     0.000000 
 105.040000  1080.000000     0.000926  1047.491156     0.000000 
 105.060000  1075.000000     0.000930  1047.470711     0.000000 
 105.080000  1064.000000     0.000940  1047.454170     0.000000 
 105.100000  1047.000000     0.000955  1047.441365     0.000000 
 105.120000  1081.000000     0.000925  1047.432157     0.000000 
 105.140000  1071.000000     0.000934  1047.426437     0.000000 
 105.160000  1037.000000     0.000964  1047.424125     0.000000 
 105.180000  1025.000000     0.000976  1047.115511     0.000000 
 105.200000  1062.000000     0.000942  1047.123950     0.000000 
 105.220000  1052.000000     0.000951  1047.135625     0.000000 
 105.240000  1050.000000     0.000952  1047.150560     0.000000 
 105.260000  1040.000000     0.000962  1047.168806     0.000000 
 105.280000  1035.000000     0.000966  1047.190443     0.000000 
 105.300000  1084.000000     0.000923  1047.215581     0.000000 
 105.320000  1072.000000     0.000933  1047.244364     0.000000 
 105.340000  1054.000000     0.000949  1047.276974     0.000000 
 105.360000  1059.000000     0.000944  1047.313636     0.000000 
 105.380000   980.000000     0.001020  1047.354623     0.000000 
 105.400000  1018.000000     0.000982  1047.400263     0.000000 
 105.420000  1017.000000     0.000983  1047.450951     0.000000 
 105.440000   978.000000     0.001022  1047.507162     0.000000 
 105.460000  1013.000000     0.000987  1047.569462     0.000000 
 105.480000  1039.000000     0.000962  1047.648540     0.000000 
 105.500000  1034.000000     0.000967  1047.725406     0.000000 
 105.520000  1037.000000     0.000964  1047.810952     0.000000 
 105.540000  1067.000000     0.000937  1047.906543     0.000000 
 105.560000  1093.000000     0.000915  1048.014011     0.000000 
 105.580000  1074.000000     0.000931  1048.135942     0.000000 
 105.600000  1045.000000     0.000957  1048.276126     0.000000 
 105.620000  1059.000000     0.000944  1048.440285     0.000000 
 105.640000  1056.000000     0.000947  1048.637137     0.000000 
 105.660000  1026.000000     0.000975  1048.879849     0.000000 
 105.680000  1046.000000     0.000956  1049.187814     0.000000 
 105.700000  1021.000000     0.000979  1049.588508     0.000000 
 105.720000  1051.000000     0.000951  1050.118941     0.000000 
 105.740000  1062.000000     0.000942  1050.827691     0.000000 
 105.760000  1038.000000     0.000963  1051.766144     0.000000 
 105.780000  1045.000000     0.000957  1052.994266     0.000000 
 105.800000  1041.000000     0.000961  1054.565712     0.000000 
 105.820000  1054.000000     0.000949  1056.518548     0.000000 
 105.840000  1059.000000     0.000944  1058.862092     0.000000 
 105.860000  1022.000000     0.000978  1061.562479     0.000000 
 105.880000  1008.000000     0.000992  1064.526777     0.000000 
 105.900000  1027.000000     0.000974  1067.584511     0.000000 
 105.920000  1057.000000     0.000946  1070.469148     0.000000 
 105.940000  1082.000000     0.000924  1072.818635     0.000000 
 105.960000  1094.000000     0.000914  1074.237712     0.000000 
 105.980000  1067.000000     0.000937  1074.447483     0.000000 
 106.000000  1150.000000     0.000870  1073.429178     0.000000 
 106.020000  1198.000000     0.000835  1071.447631     0.000000 
 106.040000  1117.000000     0.000895  1068.902273     0.000000 
 106.060000  1074.000000     0.000931  1066.175475     0.000000 
 106.080000  1063.000000     0.000941  1063.561135     0.000000 
 106.100000  1088.000000     0.000919  1061.260176     0.000000 
 106.120000  1086.000000     0.000921  1059.398455     0.000000 
 106.140000  1076.000000     0.000929  1058.044674     0.000000 
 106.160000  1075.000000     0.000930  1057.224144     0.000000 
 106.180000  1037.000000     0.000964  1056.929340     0.000000 
 106.200000  1044.000000     0.000958  1057.127733     0.000000 
 106.220000  1062.000000     0.000942  1057.766511     0.000000 
 106.240000  1023.000000     0.000978  1058.773720     0.000000 
 106.260000  1079.000000     0.000927  1060.055356     0.000000 
 106.280000  1081.000000     0.000925  1061.488194     0.000000 
 106.300000  1068.000000     0.000936  1062.910560     0.000000 
 106.320000  1034.000000     0.000967  1064.121957     0.000000 
 106.340000  1024.000000     0.000977  1064.913898     0.000000 
 106.360000  1109.000000     0.000902  1065.143018     0.000000 
 106.380000  1084.000000     0.000923  1064.804107     0.000000 
 106.400000  1062.000000     0.000942  1064.031342     0.000000 
 106.420000  1110.000000     0.000901  1063.025407     0.000000 
 106.440000  1106.000000     0.000904  1061.977255     0.000000 
 106.460000  1089.000000     0.000918  1061.034072     0.000000 
 106.480000  1103.000000     0.000907  1060.224369     0.000000 
 106.500000  1095.000000     0.000913  1059.767933     0.000000 
 106.520000  1095.000000     0.000913  1059.639019     0.000000 
 106.540000  1067.000000     0.000937  1059.881377     0.000000 
 106.560000  1066.000000     0.000938  1060.547845     0.000000 
 106.580000  1048.000000     0.000954  1061.717214     0.000000 
 106.600000  1034.000000     0.000967  1063.511393     0.000000 
 106.620000  1038.000000     0.000963  1066.110229     0.000000 
 106.640000  1087.000000     0.000920  1069.760115     0.000000 
 106.660000  1061.000000     0.000943  1074.771560     0.000000 
 106.680000  1055.000000     0.000948  1081.500804     0.000000 
 106.700000  1057.000000     0.000946  1090.311846     0.000000 
 106.720000  1061.000000     0.000943  1101.518374     0.000000 
 106.740000  1058.000000     0.000945  1115.309080     0.000000 
 106.760000  1084.000000     0.000923  1131.662474     0.000000 
 106.780000  1106.000000     0.000904  1150.255441     0.000000 
 106.800000  1142.000000     0.000876  1170.362428     0.000000 
 106.820000  1130.000000     0.000885  1190.739524     0.000000 
 106.840000  1190.000000     0.000840  1209.522683     0.000000 
 106.860000  1260.000000     0.000794  1224.282743     0.000000 
 106.880000  1326.000000     0.000754  1232.500065     0.000000 
 106.900000  1455.000000     0.000687  1232.527957     0.000000 
 106.920000  1557.000000     0.000642  1224.466613     0.000000 
 106.940000  1526.000000     0.000655  1210.120931     0.000000 
 106.960000  1387.000000     0.000721  1192.090508     0.000000 
 106.980000  1269.000000     0.000788  1172.842139     0.000000 
 107.000000  1221.000000     0.000819  1154.285697     0.000000 
 107.020000  1200.000000     0.000833  1137.745923     0.000000 
 107.040000  1124.000000     0.000890  1123.994490     0.000000 
 107.060000  1069.000000     0.000935  1113.656454     0.000000 
 107.080000  1058.000000     0.000945  1106.844933     0.000000 
 107.100000  1046.000000     0.000956  1103.526090     0.000000 
 107.120000  1044.000000     0.000958  1103.492947     0.000000 
 107.140000  1072.000000     0.000933  1106.397189     0.000000 
 107.160000  1077.000000     0.000929  1111.760443     0.000000 
 107.180000  1093.000000     0.000915  1118.961835     0.000000 
 107.200000  1086.000000     0.000921  1127.199650     0.000000 
 107.220000  1132.000000     0.000883  1135.437623     0.000000 
 107.240000  1181.000000     0.000847  1142.392314     0.000000 
 107.260000  1242.000000     0.000805  1146.687494     0.000000 
 107.280000  1215.000000     0.000823  1147.267991     0.000000 
 107.300000  1253.000000     0.000798  1143.885666     0.000000 
 107.320000  1260.000000     0.000794  1137.222922     0.000000 
 107.340000  1257.000000     0.000796  1128.515072     0.000000 
 107.360000  1207.000000     0.000829  1119.036054     0.000000 
 107.380000  1188.000000     0.000842  1109.798851     0.000000 
 107.400000  1090.000000     0.000917  1101.488614     0.000000 
 107.420000  1089.000000     0.000918  1094.497605     0.000000 
 107.440000  1066.000000     0.000938  1088.975388     0.000000 
 107.460000  1044.000000     0.000958  1084.873040     0.000000 
 107.480000  1058.000000     0.000945  1081.970911     0.000000 
 107.500000  1038.000000     0.000963  1079.927905     0.000000 
 107.520000  1100.000000     0.000909  1078.327538     0.000000 
 107.540000  1121.000000     0.000892  1076.769230     0.000000 
 107.560000  1049.000000     0.000953  1074.980287     0.000000 
 107.580000  1086.000000     0.000921  1072.884469     0.000000 
 107.600000  1059.000000     0.000944  1070.572581     0.000000 
 107.620000   993.000000     0.001007  1068.210451     0.000000 
 107.640000  1044.000000     0.000958  1065.961004     0.000000 
 107.660000  1084.000000     0.000923  1063.950663     0.000000 
 107.680000  1115.000000     0.000897  1062.264643     0.000000 
 107.700000  1108.000000     0.000903  1060.951136     0.000000 
 107.720000  1053.000000     0.000950  1060.025686     0.000000 
 107.740000  1067.000000     0.000937  1059.474293     0.000000 
 107.760000  1078.000000     0.000928  1059.255978     0.000000 
 107.780000  1043.000000     0.000959  1059.306776     0.000000 
 107.800000  1028.000000     0.000973  1059.548492     0.000000 
 107.820000  1035.000000     0.000966  1059.903162     0.000000 
 107.840000  1070.000000     0.000935  1060.305340     0.000000 
 107.860000  1063.000000     0.000941  1060.699749     0.000000 
 107.880000  1031.000000     0.000970  1061.024275     0.000000 
 107.900000  1059.000000     0.000944  1061.195494     0.000000 
 107.920000  1045.000000     0.000957  1061.117103     0.000000 
 107.940000  1000.000000     0.001000  1060.717155     0.000000 
 107.960000  1037.000000     0.000964  1059.991039     0.000000 
 107.980000  1074.000000     0.000931  1059.010563     0.000000 
 108.000000  1051.000000     0.000951  1057.890143     0.000000 
 108.020000  1071.000000     0.000934  1056.743021     0.000000 
 108.040000  1058.000000     0.000945  1055.656648     0.000000 
 108.060000  1051.000000     0.000951  1054.688022     0.000000 
 108.080000  1070.000000     0.000935  1053.867634     0.000000 
 108.100000  1067.000000     0.000937  1053.204534     0.000000 
 108.120000  1075.000000     0.000930  1052.690458     0.000000 
 108.140000  1059.000000     0.000944  1052.303162     0.000000 
 108.160000  1074.000000     0.000931  1052.009710     0.000000 
 108.180000  1059.000000     0.000944  1051.771045     0.000000 
 108.200000  1069.000000     0.000935  1051.549457     0.000000 
 108.220000  1070.000000     0.000935  1051.318032     0.000000 
 108.240000  1006.000000     0.000994  1051.066692     0.000000 
 108.260000  1033.000000     0.000968  1050.800069     0.000000 
 108.280000  1023.000000     0.000978  1050.529850     0.000000 
 108.300000  1026.000000     0.000975  1050.268001     0.000000 
 108.320000  1033.000000     0.000968  1050.023715     0.000000 
 108.340000  1111.000000     0.000900  1049.862739     0.000000 
 108.360000  1047.000000     0.000955  1049.669135     0.000000 
 108.380000  1095.000000     0.000913  1049.502853     0.000000 
 108.400000  1074.000000     0.000931  1049.362805     0.000000 
 108.420000  1005.000000     0.000995  1049.246606     0.000000 
 108.440000  1009.000000     0.000991  1049.151110     0.000000 
 108.460000  1023.000000     0.000978  1049.072899     0.000000 
 108.480000  1060.000000     0.000943  1049.008680     0.000000 
 108.500000  1041.000000     0.000961  1048.955531     0.000000 
 108.520000  1070.000000     0.000935  1048.911032     0.000000 
 108.540000  1056.000000     0.000947  1048.873281     0.000000 
 108.560000  1063.000000     0.000941  1048.840843     0.000000 
 108.580000  1038.000000     0.000963  1048.812669     0.000000 
 108.600000  1062.000000     0.000942  1048.788006     0.000000 
 108.620000  1032.000000     0.000969  1048.766311     0.000000 
 108.640000  1035.000000     0.000966  1048.747190     0.000000 
 108.660000  1026.000000     0.000975  1048.730348     0.000000 
 108.680000  1035.000000     0.000966  1048.715557     0.000000 
 108.700000  1024.000000     0.000977  1048.702635     0.000000 
 108.720000  1063.000000     0.000941  1048.676762     0.000000 
 108.740000  1063.000000     0.000941  1048.667395     0.000000 
 108.760000  1018.000000     0.000982  1048.659505     0.000000 
 108.780000  1018.000000     0.000982  1048.652998     0.000000 
 108.800000  1056.000000     0.000947  1048.647791     0.000000 
 108.820000  1071.000000     0.000934  1048.643815     0.000000 
 108.840000  1099.000000     0.000910  1048.774576     0.000000 
 108.860000  1121.000000     0.000892  1048.774221     0.000000 
 108.880000  1056.000000     0.000947  1048.774955     0.000000 
 108.900000  1039.000000     0.000962  1048.776741     0.000000 
 108.920000  1054.000000     0.000949  1048.779549     0.000000 
 108.940000  1027.000000     0.000974  1048.783353     0.000000 
 108.960000  1039.000000     0.000962  1048.788137     0.000000 
 108.980000  1041.000000     0.000961  1048.793889     0.000000 
 109.000000  1039.000000     0.000962  1048.800606     0.000000 
 109.020000  1052.000000     0.000951  1048.808291     0.000000 
 109.040000  1047.000000     0.000955  1048.816954     0.000000 
 109.060000  1035.000000     0.000966  1048.826616     0.000000 
 109.080000  1073.000000     0.000932  1048.837306     0.000000 
 109.100000  1022.000000     0.000978  1048.849064     0.000000 
 109.120000  1024.000000     0.000977  1048.861943     0.000000 
 109.140000  1030.000000     0.000971  1048.876015     0.000000 
 109.160000  1075.000000     0.000930  1048.891374     0.000000 
 109.180000  1081.000000     0.000925  1048.908145     0.000000 
 109.200000  1037.000000     0.000964  1048.926503     0.000000 
 109.220000  1064.000000     0.000940  1048.946692     0.000000 
 109.240000  1036.000000     0.000965  1048.969072     0.000000 
 109.260000  1027.000000     0.000974  1048.994169     0.000000 
 109.280000  1033.000000     0.000968  1049.051857     0.000000 
 109.300000  1093.000000     0.000915  1049.085409     0.000000 
 109.320000  1074.000000     0.000931  1049.110593     0.000000 
 109.340000  1036.000000     0.000965  1049.159350     0.000000 
 109.360000  1080.000000     0.000926  1049.219973     0.000000 
 109.380000  1022.000000     0.000978  1049.296571     0.000000 
 109.400000  1013.000000     0.000987  1049.394169     0.000000 
 109.420000  1011.000000     0.000989  1049.518525     0.000000 
 109.440000  1059.000000     0.000944  1049.675713     0.000000 
 109.460000  1078.000000     0.000928  1049.871449     0.000000 
 109.480000  1017.000000     0.000983  1050.110176     0.000000 
 109.500000  1014.000000     0.000986  1050.393967     0.000000 
 109.520000   989.000000     0.001011  1050.721335     0.000000 
 109.540000  1045.000000     0.000957  1051.085987     0.000000 
 109.560000  1031.000000     0.000970  1051.475470     0.000000 
 109.580000  1051.000000     0.000951  1051.869657     0.000000 
 109.600000  1056.000000     0.000947  1052.239450     0.000000 
 109.620000  1083.000000     0.000923  1052.547311     0.000000 
 109.640000  1038.000000     0.000963  1052.752705     0.000000 
 109.660000  1057.000000     0.000946  1052.824127     0.000000 
 109.680000  1064.000000     0.000940  1052.752702     0.000000 
 109.700000  1071.000000     0.000934  1052.454405     0.000000 
 109.720000  1053.000000     0.000950  1052.172849     0.000000 
 109.740000  1072.000000     0.000933  1051.845680     0.000000 
 109.760000  1065.000000     0.000939  1051.509481     0.000000 
 109.780000  1075.000000     0.000930  1051.192265     0.000000 
 109.800000  1021.000000     0.000979  1050.913868     0.000000 
 109.820000  1035.000000     0.000966  1050.687358     0.000000 
 109.840000  1042.000000     0.000960  1050.520337     0.000000 
 109.860000  1025.000000     0.000976  1050.415945     0.000000 
 109.880000  1055.000000     0.000948  1050.373671     0.000000 
 109.900000  1082.000000     0.000924  1050.389991     0.000000 
 109.920000  1072.000000     0.000933  1050.518445     0.000000 
 109.940000  1057.000000     0.000946  1050.632262     0.000000 
 109.960000  1066.000000     0.000938  1050.779417     0.000000 
 109.980000  1054.000000     0.000949  1050.946318     0.000000 
 110.000000  1061.000000     0.000943  1051.115959     0.000000 
 110.020000  1027.000000     0.000974  1051.267749     0.000000 
 110.040000  1018.000000     0.000982  1051.379199     0.000000 
 110.060000   997.000000     0.001003  1051.430863     0.000000 
 110.080000  1075.000000     0.000930  1051.413232     0.000000 
 110.100000  1071.000000     0.000934  1051.330719     0.000000 
 110.120000  1068.000000     0.000936  1051.199021     0.000000 
 110.140000  1044.000000     0.000958  1051.038200     0.000000 
 110.160000  1035.000000     0.000966  1050.866731     0.000000 
 110.180000  1074.000000     0.000931  1050.698876     0.000000 
 110.200000  1090.000000     0.000917  1050.544454     0.000000 
 110.220000  1079.000000     0.000927  1050.409496     0.000000 
 110.240000  1047.000000     0.000955  1050.296995     0.000000 
 110.260000  1049.000000     0.000953  1050.207572     0.000000 
 110.280000  1098.000000     0.000911  1050.140100     0.000000 
 110.300000  1103.000000     0.000907  1050.092295     0.000000 
 110.320000  1057.000000     0.000946  1049.958785     0.000000 
 110.340000  1095.000000     0.000913  1049.942646     0.000000 
 110.360000  1068.000000     0.000936  1049.937313     0.000000 
 110.380000  1096.000000     0.000912  1049.940276     0.000000 
 110.400000  1075.000000     0.000930  1049.939596     0.000000 
 110.420000  1062.000000     0.000942  1049.953635     0.000000 
 110.440000  1044.000000     0.000958  1049.971171     0.000000 
 110.460000  1045.000000     0.000957  1050.125928     0.000000 
 110.480000  1047.000000     0.000955  1050.150144     0.000000 
 110.500000  1027.000000     0.000974  1050.176110     0.000000 
 110.520000  1095.000000     0.000913  1050.203566     0.000000 
 110.540000  1053.000000     0.000950  1050.232341     0.000000 
 110.560000  1047.000000     0.000955  1050.262317     0.000000 
 110.580000  1096.000000     0.000912  1050.293416     0.000000 
 110.600000  1084.000000     0.000923  1050.325583     0.000000 
 110.620000  1065.000000     0.000939  1050.358780     0.000000 
 110.640000  1044.000000     0.000958  1050.392980     0.000000 
 110.660000  1056.000000     0.000947  1050.428169     0.000000 
 110.680000  1090.000000     0.000917  1050.464337     0.000000 
 110.700000  1078.000000     0.000928  1050.499772     0.000000 
 110.720000  1071.000000     0.000934  1050.537925     0.000000 
 110.740000  1061.000000     0.000943  1050.577066     0.000000 
 110.760000  1077.000000     0.000929  1050.617209     0.000000 
 110.780000  1101.000000     0.000908  1050.658372     0.000000 
 110.800000  1081.000000     0.000925  1050.700577     0.000000 
 110.820000  1067.000000     0.000937  1050.743848     0.000000 
 110.840000  1046.000000     0.000956  1050.788217     0.000000 
 110.860000  1052.000000     0.000951  1050.833716     0.000000 
 110.880000  1072.000000     0.000933  1050.880384     0.000000 
 110.900000  1074.000000     0.000931  1050.978923     0.000000 
 110.920000  1043.000000     0.000959  1051.028668     0.000000 
 110.940000   989.000000     0.001011  1051.079729     0.000000 
 110.960000   994.000000     0.001006  1051.132162     0.000000 
 110.980000  1026.000000     0.000975  1051.186026     0.000000 
 111.000000  1041.000000     0.000961  1051.503143     0.000000 
 111.020000  1065.000000     0.000939  1051.562534     0.000000 
 111.040000  1045.000000     0.000957  1051.613743     0.000000 
 111.060000  1047.000000     0.000955  1051.676676     0.000000 
 111.080000  1059.000000     0.000944  1051.741450     0.000000 
 111.100000  1059.000000     0.000944  1051.808162     0.000000 
 111.120000  1003.000000     0.000997  1051.876913     0.000000 
 111.140000  1044.000000     0.000958  1051.947814     0.000000 
 111.160000  1052.000000     0.000951  1052.020985     0.000000 
 111.180000  1058.000000     0.000945  1052.096555     0.000000 
 111.200000   994.000000     0.001006  1052.174664     0.000000 
 111.220000  1073.000000     0.000932  1052.255464     0.000000 
 111.240000  1090.000000     0.000917  1052.339118     0.000000 
 111.260000  1059.000000     0.000944  1052.425805     0.000000 
 111.280000  1049.000000     0.000953  1052.515718     0.000000 
 111.300000  1037.000000     0.000964  1052.609070     0.000000 
 111.320000  1082.000000     0.000924  1052.706089     0.000000 
 111.340000  1062.000000     0.000942  1052.805315     0.000000 
 111.360000  1054.000000     0.000949  1052.910468     0.000000 
 111.380000  1051.000000     0.000951  1053.020116     0.000000 
 111.400000  1079.000000     0.000927  1053.134590     0.000000 
 111.420000  1030.000000     0.000971  1053.254255     0.000000 
 111.440000   995.000000     0.001005  1053.379510     0.000000 
 111.460000   975.000000     0.001026  1053.510801     0.000000 
 111.480000  1037.000000     0.000964  1053.648618     0.000000 
 111.500000  1057.000000     0.000946  1053.793504     0.000000 
 111.520000  1057.000000     0.000946  1053.946068     0.000000 
 111.540000  1023.000000     0.000978  1054.106985     0.000000 
 111.560000  1004.000000     0.000996  1054.277013     0.000000 
 111.580000  1063.000000     0.000941  1054.456999     0.000000 
 111.600000  1075.000000     0.000930  1054.647901     0.000000 
 111.620000  1055.000000     0.000948  1054.850798     0.000000 
 111.640000  1037.000000     0.000964  1055.066914     0.000000 
 111.660000  1017.000000     0.000983  1055.297645     0.000000 
 111.680000  1016.000000     0.000984  1055.544591     0.000000 
 111.700000  1044.000000     0.000958  1055.809606     0.000000 
 111.720000  1033.000000     0.000968  1056.094860     0.000000 
 111.740000  1029.000000     0.000972  1056.402938     0.000000 
 111.760000  1042.000000     0.000960  1056.736995     0.000000 
 111.780000  1053.000000     0.000950  1057.100993     0.000000 
 111.800000  1102.000000     0.000907  1057.500083     0.000000 
 111.820000  1090.000000     0.000917  1057.941190     0.000000 
 111.840000  1070.000000     0.000935  1058.433911     0.000000 
 111.860000  1075.000000     0.000930  1058.991823     0.000000 
 111.880000  1054.000000     0.000949  1059.634317     0.000000 
 111.900000  1092.000000     0.000916  1060.389025     0.000000 
 111.920000  1073.000000     0.000932  1061.294820     0.000000 
 111.940000  1052.000000     0.000951  1062.405204     0.000000 
 111.960000  1041.000000     0.000961  1063.791661     0.000000 
 111.980000  1037.000000     0.000964  1065.546279     0.000000 
 112.000000  1043.000000     0.000959  1067.782620     0.000000 
 112.020000  1046.000000     0.000956  1070.633688     0.000000 
 112.040000  1026.000000     0.000975  1074.245808     0.000000 
 112.060000  1066.000000     0.000938  1078.767578     0.000000 
 112.080000  1048.000000     0.000954  1084.333704     0.000000 
 112.100000  1030.000000     0.000971  1091.044358     0.000000 
 112.120000  1103.000000     0.000907  1098.941465     0.000000 
 112.140000  1095.000000     0.000913  1107.983512     0.000000 
 112.160000  1064.000000     0.000940  1118.019681     0.000000 
 112.180000  1041.000000     0.000961  1128.762554     0.000000 
 112.200000  1091.000000     0.000917  1139.758179     0.000000 
 112.220000  1136.000000     0.000880  1150.358146     0.000000 
 112.240000  1109.000000     0.000902  1159.716937     0.000000 
 112.260000  1180.000000     0.000847  1166.865329     0.000000 
 112.280000  1249.000000     0.000801  1171.062552     0.000000 
 112.300000  1324.000000     0.000755  1171.483361     0.000000 
 112.320000  1317.000000     0.000759  1168.348913     0.000000 
 112.340000  1361.000000     0.000735  1162.301433     0.000000 
 112.360000  1190.000000     0.000840  1154.309615     0.000000 
 112.380000  1151.000000     0.000869  1145.385823     0.000000 
 112.400000  1147.000000     0.000872  1136.412329     0.000000 
 112.420000  1125.000000     0.000889  1128.088776     0.000000 
 112.440000  1140.000000     0.000877  1120.945413     0.000000 
 112.460000  1084.000000     0.000923  1115.375052     0.000000 
 112.480000  1107.000000     0.000903  1111.664157     0.000000 
 112.500000  1069.000000     0.000935  1110.019602     0.000000 
 112.520000  1081.000000     0.000925  1110.591911     0.000000 
 112.540000  1109.000000     0.000902  1113.494731     0.000000 
 112.560000  1103.000000     0.000907  1118.818413     0.000000 
 112.580000  1093.000000     0.000915  1126.634331     0.000000 
 112.600000  1132.000000     0.000883  1137.006891     0.000000 
 112.620000  1115.000000     0.000897  1149.886389     0.000000 
 112.640000  1092.000000     0.000916  1165.188842     0.000000 
 112.660000  1092.000000     0.000916  1182.671270     0.000000 
 112.680000  1080.000000     0.000926  1201.918324     0.000000 
 112.700000  1148.000000     0.000871  1222.635306     0.000000 
 112.720000  1188.000000     0.000842  1243.675690     0.000000 
 112.740000  1234.000000     0.000810  1264.680733     0.000000 
 112.760000  1269.000000     0.000788  1285.013482     0.000000 
 112.780000  1261.000000     0.000793  1303.856877     0.000000 
 112.800000  1266.000000     0.000790  1320.030143     0.000000 
 112.820000  1281.000000     0.000781  1331.953249     0.000000 
 112.840000  1362.000000     0.000734  1337.903457     0.000000 
 112.860000  1525.000000     0.000656  1336.568829     0.000000 
 112.880000  1633.000000     0.000612  1327.643700     0.000000 
 112.900000  1706.000000     0.000586  1312.054047     0.000000 
 112.920000  1644.000000     0.000608  1291.641578     0.000000 
 112.940000  1458.000000     0.000686  1268.571282     0.000000 
 112.960000  1308.000000     0.000765  1244.848231     0.000000 
 112.980000  1216.000000     0.000822  1222.098654     0.000000 
 113.000000  1185.000000     0.000844  1201.545972     0.000000 
 113.020000  1200.000000     0.000833  1184.064342     0.000000 
 113.040000  1191.000000     0.000840  1170.240350     0.000000 
 113.060000  1153.000000     0.000867  1160.421584     0.000000 
 113.080000  1122.000000     0.000891  1154.752063     0.000000 
 113.100000  1117.000000     0.000895  1153.198180     0.000000 
 113.120000  1096.000000     0.000912  1155.566833     0.000000 
 113.140000  1104.000000     0.000906  1161.515271     0.000000 
 113.160000  1122.000000     0.000891  1170.550998     0.000000 
 113.180000  1115.000000     0.000897  1182.019527     0.000000 
 113.200000  1133.000000     0.000883  1195.079049     0.000000 
 113.220000  1133.000000     0.000883  1208.668529     0.000000 
 113.240000  1113.000000     0.000898  1221.496006     0.000000 
 113.260000  1200.000000     0.000833  1232.103029     0.000000 
 113.280000  1206.000000     0.000829  1239.064263     0.000000 
 113.300000  1291.000000     0.000775  1241.305334     0.000000 
 113.320000  1407.000000     0.000711  1238.393966     0.000000 
 113.340000  1441.000000     0.000694  1230.631236     0.000000 
 113.360000  1423.000000     0.000703  1218.906615     0.000000 
 113.380000  1340.000000     0.000746  1204.437317     0.000000 
 113.400000  1277.000000     0.000783  1188.488238     0.000000 
 113.420000  1228.000000     0.000814  1172.188456     0.000000 
 113.440000  1186.000000     0.000843  1156.435208     0.000000 
 113.460000  1096.000000     0.000912  1141.876677     0.000000 
 113.480000  1108.000000     0.000903  1128.935369     0.000000 
 113.500000  1057.000000     0.000946  1117.844902     0.000000 
 113.520000  1075.000000     0.000930  1108.687872     0.000000 
 113.540000  1074.000000     0.000931  1101.431319     0.000000 
 113.560000  1036.000000     0.000965  1095.958924     0.000000 
 113.580000  1083.000000     0.000923  1092.098969     0.000000 
 113.600000  1057.000000     0.000946  1089.646866     0.000000 
 113.620000  1055.000000     0.000948  1088.381293     0.000000 
 113.640000  1072.000000     0.000933  1088.073575     0.000000 
 113.660000  1066.000000     0.000938  1088.490465     0.000000 
 113.680000  1095.000000     0.000913  1089.391151     0.000000 
 113.700000  1084.000000     0.000923  1090.520884     0.000000 
 113.720000  1079.000000     0.000927  1091.607367     0.000000 
 113.740000  1082.000000     0.000924  1092.371247     0.000000 
 113.760000  1089.000000     0.000918  1092.562118     0.000000 
 113.780000  1131.000000     0.000884  1092.015761     0.000000 
 113.800000  1140.000000     0.000877  1090.701561     0.000000 
 113.820000  1150.000000     0.000870  1088.723159     0.000000 
 113.840000  1120.000000     0.000893  1086.269605     0.000000 
 113.860000  1129.000000     0.000886  1083.551709     0.000000 
 113.880000  1091.000000     0.000917  1080.757376     0.000000 
 113.900000  1048.000000     0.000954  1078.033617     0.000000 
 113.920000  1034.000000     0.000967  1075.485529     0.000000 
 113.940000  1064.000000     0.000940  1073.181542     0.000000 
 113.960000  1082.000000     0.000924  1071.159560     0.000000 
 113.980000  1103.000000     0.000907  1069.432670     0.000000 
 114.000000  1054.000000     0.000949  1067.994576     0.000000 
 114.020000  1054.000000     0.000949  1066.824931     0.000000 
 114.040000  1090.000000     0.000917  1065.894477     0.000000 
 114.060000  1083.000000     0.000923  1065.322479     0.000000 
 114.080000  1084.000000     0.000923  1064.771214     0.000000 
 114.100000  1119.000000     0.000894  1064.359769     0.000000 
 114.120000  1065.000000     0.000939  1064.060292     0.000000 
 114.140000  1067.000000     0.000937  1063.849652     0.000000 
 114.160000  1041.000000     0.000961  1063.709496     0.000000 
 114.180000  1075.000000     0.000930  1063.625843     0.000000 
 114.200000  1072.000000     0.000933  1063.588419     0.000000 
 114.220000  1071.000000     0.000934  1063.589924     0.000000 
 114.240000  1057.000000     0.000946  1063.625341     0.000000 
 114.260000  1050.000000     0.000952  1063.691346     0.000000 
 114.280000  1091.000000     0.000917  1064.026880     0.000000 
 114.300000  1060.000000     0.000943  1064.150700     0.000000 
 114.320000  1009.000000     0.000991  1064.301252     0.000000 
 114.340000  1001.000000     0.000999  1064.478451     0.000000 
 114.360000  1033.000000     0.000968  1064.682596     0.000000 
 114.380000  1004.000000     0.000996  1064.914312     0.000000 
 114.400000  1129.000000     0.000886  1065.174524     0.000000 
 114.420000  1111.000000     0.000900  1065.464441     0.000000 
 114.440000  1082.000000     0.000924  1065.785566     0.000000 
 114.460000  1072.000000     0.000933  1066.139707     0.000000 
 114.480000  1088.000000     0.000919  1066.529003     0.000000 
 114.500000  1101.000000     0.000908  1066.955959     0.000000 
 114.520000  1056.000000     0.000947  1067.423481     0.000000 
 114.540000  1038.000000     0.000963  1067.934940     0.000000 
 114.560000  1067.000000     0.000937  1068.494237     0.000000 
 114.580000  1063.000000     0.000941  1069.105900     0.000000 
 114.600000  1064.000000     0.000940  1069.775206     0.000000 
 114.620000  1048.000000     0.000954  1070.508365     0.000000 
 114.640000  1075.000000     0.000930  1071.312767     0.000000 
 114.660000  1088.000000     0.000919  1072.197361     0.000000 
 114.680000  1075.000000     0.000930  1073.173214     0.000000 
 114.700000  1064.000000     0.000940  1074.254341     0.000000 
 114.720000  1092.000000     0.000916  1075.458941     0.000000 
 114.740000  1085.000000     0.000922  1076.811203     0.000000 
 114.760000  1083.000000     0.000923  1078.343885     0.000000 
 114.780000  1080.000000     0.000926  1080.101905     0.000000 
 114.800000  1094.000000     0.000914  1082.147166     0.000000 
 114.820000  1074.000000     0.000931  1084.564788     0.000000 
 114.840000  1069.000000     0.000935  1087.470768     0.000000 
 114.860000  1090.000000     0.000917  1091.020837     0.000000 
 114.880000  1089.000000     0.000918  1095.419883     0.000000 
 114.900000  1093.000000     0.000915  1100.930816     0.000000 
 114.920000  1090.000000     0.000917  1107.881126     0.000000 
 114.940000  1084.000000     0.000923  1116.664830     0.000000 
 114.960000  1090.000000     0.000917  1127.737063     0.000000 
 114.980000  1121.000000     0.000892  1141.598448     0.000000 
 115.000000  1112.000000     0.000899  1158.766800     0.000000 
 115.020000  1101.000000     0.000908  1179.734588     0.000000 
 115.040000  1079.000000     0.000927  1204.912088     0.000000 
 115.060000  1093.000000     0.000915  1234.557897     0.000000 
 115.080000  1099.000000     0.000910  1268.700534     0.000000 
 115.100000  1144.000000     0.000874  1307.057490     0.000000 
 115.120000  1145.000000     0.000873  1348.959060     0.000000 
 115.140000  1206.000000     0.000829  1393.289444     0.000000 
 115.160000  1251.000000     0.000799  1438.453479     0.000000 
 115.180000  1316.000000     0.000760  1482.362847     0.000000 
 115.200000  1407.000000     0.000711  1522.440964     0.000000 
 115.220000  1513.000000     0.000661  1555.692364     0.000000 
 115.240000  1590.000000     0.000629  1578.972515     0.000000 
 115.260000  1794.000000     0.000557  1589.588804     0.000000 
 115.280000  1975.000000     0.000506  1586.121632     0.000000 
 115.300000  2301.000000     0.000435  1569.021188     0.000000 
 115.320000  2242.000000     0.000446  1540.543006     0.000000 
 115.340000  2225.000000     0.000449  1504.055849     0.000000 
 115.360000  1968.000000     0.000508  1463.183975     0.000000 
 115.380000  1648.000000     0.000607  1421.202011     0.000000 
 115.400000  1439.000000     0.000695  1380.779390     0.000000 
 115.420000  1282.000000     0.000780  1343.954872     0.000000 
 115.440000  1288.000000     0.000776  1312.200511     0.000000 
 115.460000  1237.000000     0.000808  1286.496943     0.000000 
 115.480000  1198.000000     0.000835  1267.396181     0.000000 
 115.500000  1158.000000     0.000864  1255.072006     0.000000 
 115.520000  1161.000000     0.000861  1249.303157     0.000000 
 115.540000  1164.000000     0.000859  1249.747443     0.000000 
 115.560000  1149.000000     0.000870  1255.615237     0.000000 
 115.580000  1163.000000     0.000860  1265.935173     0.000000 
 115.600000  1160.000000     0.000862  1279.517779     0.000000 
 115.620000  1225.000000     0.000816  1294.976539     0.000000 
 115.640000  1199.000000     0.000834  1310.743032     0.000000 
 115.660000  1251.000000     0.000799  1325.082931     0.000000 
 115.680000  1336.000000     0.000749  1336.158158     0.000000 
 115.700000  1368.000000     0.000731  1342.217450     0.000000 
 115.720000  1471.000000     0.000680  1341.948505     0.000000 
 115.740000  1510.000000     0.000662  1334.863010     0.000000 
 115.760000  1598.000000     0.000626  1321.463068     0.000000 
 115.780000  1638.000000     0.000611  1303.049999     0.000000 
 115.800000  1555.000000     0.000643  1281.302560     0.000000 
 115.820000  1471.000000     0.000680  1257.876649     0.000000 
 115.840000  1383.000000     0.000723  1234.173373     0.000000 
 115.860000  1313.000000     0.000762  1211.266883     0.000000 
 115.880000  1261.000000     0.000793  1189.918806     0.000000 
 115.900000  1187.000000     0.000842  1170.620741     0.000000 
 115.920000  1129.000000     0.000886  1153.639008     0.000000 
 115.940000  1094.000000     0.000914  1139.056338     0.000000 
 115.960000  1102.000000     0.000907  1126.811735     0.000000 
 115.980000  1114.000000     0.000898  1116.739512     0.000000 
 116.000000  1106.000000     0.000904  1108.606612     0.000000 
 116.020000  1066.000000     0.000938  1102.146222     0.000000 
 116.040000  1045.000000     0.000957  1097.085625     0.000000 
 116.060000  1064.000000     0.000940  1093.167018     0.000000 
 116.080000  1106.000000     0.000904  1090.161157     0.000000 
 116.100000  1094.000000     0.000914  1087.874038     0.000000 
 116.120000  1110.000000     0.000901  1086.148884     0.000000 
 116.140000  1093.000000     0.000915  1084.971158     0.000000 
 116.160000  1075.000000     0.000930  1084.041556     0.000000 
 116.180000  1065.000000     0.000939  1083.398672     0.000000 
 116.200000  1082.000000     0.000924  1083.000937     0.000000 
 116.220000  1044.000000     0.000958  1082.825255     0.000000 
 116.240000  1063.000000     0.000941  1082.864733     0.000000 
 116.260000  1042.000000     0.000960  1083.068776     0.000000 
 116.280000  1075.000000     0.000930  1083.580879     0.000000 
 116.300000  1045.000000     0.000957  1084.384356     0.000000 
 116.320000  1067.000000     0.000937  1085.543999     0.000000 
 116.340000  1036.000000     0.000965  1087.150603     0.000000 
 116.360000  1046.000000     0.000956  1089.325407     0.000000 
 116.380000  1089.000000     0.000918  1092.223837     0.000000 
 116.400000  1108.000000     0.000903  1096.037369     0.000000 
 116.420000  1092.000000     0.000916  1100.992137     0.000000 
 116.440000  1102.000000     0.000907  1107.342845     0.000000 
 116.460000  1079.000000     0.000927  1115.360755     0.000000 
 116.480000  1056.000000     0.000947  1125.315010     0.000000 
 116.500000  1093.000000     0.000915  1137.447351     0.000000 
 116.520000  1100.000000     0.000909  1151.941213     0.000000 
 116.540000  1076.000000     0.000929  1168.886987     0.000000 
 116.560000  1088.000000     0.000919  1188.245566     0.000000 
 116.580000  1112.000000     0.000899  1209.811650     0.000000 
 116.600000  1112.000000     0.000899  1233.176857     0.000000 
 116.620000  1159.000000     0.000863  1257.691137     0.000000 
 116.640000  1127.000000     0.000887  1282.422446     0.000000 
 116.660000  1137.000000     0.000880  1306.095481     0.000000 
 116.680000  1189.000000     0.000841  1327.213490     0.000000 
 116.700000  1259.000000     0.000794  1343.991457     0.000000 
 116.720000  1357.000000     0.000737  1354.736897     0.000000 
 116.740000  1514.000000     0.000661  1358.226601     0.000000 
 116.760000  1790.000000     0.000559  1354.093062     0.000000 
 116.780000  2076.000000     0.000482  1342.963548     0.000000 
 116.800000  2113.000000     0.000473  1326.257961     0.000000 
 116.820000  1969.000000     0.000508  1305.783145     0.000000 
 116.840000  1768.000000     0.000566  1283.351930     0.000000 
 116.860000  1621.000000     0.000617  1260.556535     0.000000 
 116.880000  1457.000000     0.000686  1238.556530     0.000000 
 116.900000  1375.000000     0.000727  1218.616798     0.000000 
 116.920000  1239.000000     0.000807  1201.335254     0.000000 
 116.940000  1199.000000     0.000834  1187.211701     0.000000 
 116.960000  1199.000000     0.000834  1176.539626     0.000000 
 116.980000  1178.000000     0.000849  1169.428194     0.000000 
 117.000000  1157.000000     0.000864  1165.821986     0.000000 
 117.020000  1120.000000     0.000893  1165.519158     0.000000 
 117.040000  1129.000000     0.000886  1168.187165     0.000000 
 117.060000  1172.000000     0.000853  1173.374177     0.000000 
 117.080000  1158.000000     0.000864  1180.513911     0.000000 
 117.100000  1136.000000     0.000880  1188.922611     0.000000 
 117.120000  1151.000000     0.000869  1197.791353     0.000000 
 117.140000  1140.000000     0.000877  1206.187159     0.000000 
 117.160000  1161.000000     0.000861  1213.091144     0.000000 
 117.180000  1241.000000     0.000806  1217.507567     0.000000 
 117.200000  1297.000000     0.000771  1218.649455     0.000000 
 117.220000  1388.000000     0.000720  1216.138814     0.000000 
 117.240000  1562.000000     0.000640  1210.108123     0.000000 
 117.260000  1648.000000     0.000607  1201.132054     0.000000 
 117.280000  1525.000000     0.000656  1190.112847     0.000000 
 117.300000  1456.000000     0.000687  1177.757018     0.000000 
 117.320000  1383.000000     0.000723  1164.913635     0.000000 
 117.340000  1296.000000     0.000772  1152.202313     0.000000 
 117.360000  1184.000000     0.000845  1140.086862     0.000000 
 117.380000  1196.000000     0.000836  1128.890791     0.000000 
 117.400000  1194.000000     0.000838  1118.817071     0.000000 
 117.420000  1169.000000     0.000855  1109.938518     0.000000 
 117.440000  1046.000000     0.000956  1102.331127     0.000000 
 117.460000  1119.000000     0.000894  1095.919296     0.000000 
 117.480000  1085.000000     0.000922  1090.609602     0.000000 
 117.500000  1107.000000     0.000903  1086.279155     0.000000 
 117.520000  1075.000000     0.000930  1082.791062     0.000000 
 117.540000  1106.000000     0.000904  1080.007105     0.000000 
 117.560000  1111.000000     0.000900  1077.797115     0.000000 
 117.580000  1070.000000     0.000935  1076.045019     0.000000 
 117.600000  1065.000000     0.000939  1074.651882     0.000000 
 117.620000  1097.000000     0.000912  1073.536578     0.000000 
 117.640000  1115.000000     0.000897  1072.634774     0.000000 
 117.660000  1076.000000     0.000929  1071.896899     0.000000 
 117.680000  1087.000000     0.000920  1071.285674     0.000000 
 117.700000  1043.000000     0.000959  1070.773600     0.000000 
 117.720000  1049.000000     0.000953  1070.340666     0.000000 
 117.740000  1054.000000     0.000949  1070.109391     0.000000 
 117.760000  1020.000000     0.000980  1069.796436     0.000000 
 117.780000  1101.000000     0.000908  1069.530153     0.000000 
 117.800000  1107.000000     0.000903  1069.304952     0.000000 
 117.820000  1098.000000     0.000911  1069.116641     0.000000 
 117.840000  1085.000000     0.000922  1068.962015     0.000000 
 117.860000  1048.000000     0.000954  1068.838582     0.000000 
 117.880000  1036.000000     0.000965  1068.744380     0.000000 
 117.900000  1070.000000     0.000935  1068.677858     0.000000 
 117.920000  1075.000000     0.000930  1068.637797     0.000000 
 117.940000  1078.000000     0.000928  1068.623257     0.000000 
 117.960000  1051.000000     0.000951  1068.633545     0.000000 
 117.980000  1044.000000     0.000958  1068.668188     0.000000 
 118.000000  1086.000000     0.000921  1068.726918     0.000000 
 118.020000  1082.000000     0.000924  1068.809662     0.000000 
 118.040000  1087.000000     0.000920  1068.916538     0.000000 
 118.060000  1067.000000     0.000937  1069.047849     0.000000 
 118.080000  1051.000000     0.000951  1069.204084     0.000000 
 118.100000  1083.000000     0.000923  1069.385927     0.000000 
 118.120000  1092.000000     0.000916  1069.594261     0.000000 
 118.140000  1092.000000     0.000916  1069.830179     0.000000 
 118.160000  1127.000000     0.000887  1070.095003     0.000000 
 118.180000  1105.000000     0.000905  1070.390291     0.000000 
 118.200000  1106.000000     0.000904  1070.717876     0.000000 
 118.220000  1099.000000     0.000910  1071.079886     0.000000 
 118.240000  1070.000000     0.000935  1071.478784     0.000000 
 118.260000  1117.000000     0.000895  1071.917418     0.000000 
 118.280000  1093.000000     0.000915  1072.399080     0.000000 
 118.300000  1089.000000     0.000918  1072.927600     0.000000 
 118.320000  1125.000000     0.000889  1073.507459     0.000000 
 118.340000  1055.000000     0.000948  1074.143969     0.000000 
 118.360000  1047.000000     0.000955  1074.843528     0.000000 
 118.380000  1053.000000     0.000950  1075.613994     0.000000 
 118.400000  1070.000000     0.000935  1076.465246     0.000000 
 118.420000  1095.000000     0.000913  1077.409997     0.000000 
 118.440000  1073.000000     0.000932  1078.464981     0.000000 
 118.460000  1140.000000     0.000877  1079.652607     0.000000 
 118.480000  1106.000000     0.000904  1081.003253     0.000000 
 118.500000  1074.000000     0.000931  1082.558303     0.000000 
 118.520000  1067.000000     0.000937  1084.374044     0.000000 
 118.540000  1092.000000     0.000916  1086.526434     0.000000 
 118.560000  1157.000000     0.000864  1089.116634     0.000000 
 118.580000  1120.000000     0.000893  1092.276982     0.000000 
 118.600000  1089.000000     0.000918  1096.176839     0.000000 
 118.620000  1078.000000     0.000928  1101.027429     0.000000 
 118.640000  1090.000000     0.000917  1107.084506     0.000000 
 118.660000  1086.000000     0.000921  1114.625958     0.000000 
 118.680000  1101.000000     0.000908  1124.031952     0.000000 
 118.700000  1108.000000     0.000903  1135.642881     0.000000 
 118.720000  1100.000000     0.000909  1149.826307     0.000000 
 118.740000  1083.000000     0.000923  1166.927903     0.000000 
 118.760000  1123.000000     0.000890  1186.979567     0.000000 
 118.780000  1143.000000     0.000875  1210.694272     0.000000 
 118.800000  1140.000000     0.000877  1237.867250     0.000000 
 118.820000  1114.000000     0.000898  1268.373866     0.000000 
 118.840000  1134.000000     0.000882  1301.865696     0.000000 
 118.860000  1164.000000     0.000859  1337.727706     0.000000 
 118.880000  1185.000000     0.000844  1375.033788     0.000000 
 118.900000  1224.000000     0.000817  1412.501509     0.000000 
 118.920000  1252.000000     0.000799  1448.457890     0.000000 
 118.940000  1302.000000     0.000768  1480.850933     0.000000 
 118.960000  1407.000000     0.000711  1507.369634     0.000000 
 118.980000  1562.000000     0.000640  1525.736091     0.000000 
 119.000000  1757.000000     0.000569  1534.164201     0.000000 
 119.020000  1978.000000     0.000506  1531.840300     0.000000 
 119.040000  2095.000000     0.000477  1519.184815     0.000000 
 119.060000  2020.000000     0.000495  1497.738170     0.000000 
 119.080000  1838.000000     0.000544  1469.743456     0.000000 
 119.100000  1612.000000     0.000620  1437.658286     0.000000 
 119.120000  1415.000000     0.000707  1403.792219     0.000000 
 119.140000  1269.000000     0.000788  1370.125615     0.000000 
 119.160000  1251.000000     0.000799  1338.262378     0.000000 
 119.180000  1180.000000     0.000847  1309.447263     0.000000 
 119.200000  1163.000000     0.000860  1284.600884     0.000000 
 119.220000  1178.000000     0.000849  1264.352726     0.000000 
 119.240000  1145.000000     0.000873  1249.068531     0.000000 
 119.260000  1179.000000     0.000848  1238.874056     0.000000 
 119.280000  1114.000000     0.000898  1233.677387     0.000000 
 119.300000  1158.000000     0.000864  1233.190329     0.000000 
 119.320000  1171.000000     0.000854  1237.001259     0.000000 
 119.340000  1195.000000     0.000837  1244.402872     0.000000 
 119.360000  1105.000000     0.000905  1254.615870     0.000000 
 119.380000  1108.000000     0.000903  1266.731669     0.000000 
 119.400000  1158.000000     0.000864  1279.657246     0.000000 
 119.420000  1198.000000     0.000835  1292.144861     0.000000 
 119.440000  1234.000000     0.000810  1302.833665     0.000000 
 119.460000  1300.000000     0.000769  1310.343342     0.000000 
 119.480000  1411.000000     0.000709  1313.563272     0.000000 
 119.500000  1491.000000     0.000671  1311.764872     0.000000 
 119.520000  1523.000000     0.000657  1304.858299     0.000000 
 119.540000  1515.000000     0.000660  1293.371827     0.000000 
 119.560000  1467.000000     0.000682  1277.992892     0.000000 
 119.580000  1391.000000     0.000719  1260.386006     0.000000 
 119.600000  1306.000000     0.000766  1241.399366     0.000000 
 119.620000  1214.000000     0.000824  1221.992468     0.000000 
 119.640000  1197.000000     0.000835  1202.933053     0.000000 
 119.660000  1193.000000     0.000838  1184.799684     0.000000 
 119.680000  1124.000000     0.000890  1168.000978     0.000000 
 119.700000  1076.000000     0.000929  1152.797875     0.000000 
 119.720000  1075.000000     0.000930  1139.325224     0.000000 
 119.740000  1062.000000     0.000942  1127.612902     0.000000 
 119.760000  1077.000000     0.000929  1117.607125     0.000000 
 119.780000  1092.000000     0.000916  1109.191910     0.000000 
 119.800000  1091.000000     0.000917  1102.346113     0.000000 
 119.820000  1105.000000     0.000905  1096.618935     0.000000 
 119.840000  1091.000000     0.000917  1091.959040     0.000000 
 119.860000  1091.000000     0.000917  1088.186508     0.000000 
 119.880000  1104.000000     0.000906  1085.136375     0.000000 
 119.900000  1095.000000     0.000913  1082.663820     0.000000 
 119.920000  1073.000000     0.000932  1080.646315     0.000000 
 119.940000  1052.000000     0.000951  1078.983477     0.000000 
 119.960000  1068.000000     0.000936  1077.595331     0.000000 
 119.980000  1088.000000     0.000919  1076.419672     0.000000 
 120.000000  1061.000000     0.000943  1075.409082     0.000000 
 120.020000  1055.000000     0.000948  1074.527966     0.000000 
 120.040000  1020.000000     0.000980  1073.749886     0.000000 
 120.060000  1018.000000     0.000982  1073.055292     0.000000 
 120.080000  1028.000000     0.000973  1072.429695     0.000000 
 120.100000  1051.000000     0.000951  1071.862262     0.000000 
 120.120000  1031.000000     0.000970  1071.344763     0.000000 
 120.140000  1060.000000     0.000943  1070.870814     0.000000 
 120.160000  1095.000000     0.000913  1070.435340     0.000000 
 120.180000  1097.000000     0.000912  1070.034210     0.000000 
 120.200000  1072.000000     0.000933  1069.663977     0.000000 
 120.220000  1066.000000     0.000938  1069.321716     0.000000 
 120.240000  1059.000000     0.000944  1069.004899     0.000000 
 120.260000  1081.000000     0.000925  1068.772125     0.000000 
 120.280000  1152.000000     0.000868  1068.500257     0.000000 
 120.300000  1106.000000     0.000904  1068.247951     0.000000 
 120.320000  1063.000000     0.000941  1068.013664     0.000000 
 120.340000  1037.000000     0.000964  1067.796014     0.000000 
 120.360000  1038.000000     0.000963  1067.442361     0.000000 
 120.380000  1070.000000     0.000935  1067.256280     0.000000 
 120.400000  1073.000000     0.000932  1067.083432     0.000000 
 120.420000  1081.000000     0.000925  1066.922905     0.000000 
 120.440000  1091.000000     0.000917  1066.773873     0.000000 
 120.460000  1054.000000     0.000949  1066.635588     0.000000 
 120.480000  1035.000000     0.000966  1066.507369     0.000000 
 120.500000  1055.000000     0.000948  1066.388597     0.000000 
 120.520000  1086.000000     0.000921  1066.278710     0.000000 
 120.540000  1082.000000     0.000924  1066.177193     0.000000 
 120.560000  1060.000000     0.000943  1066.083580     0.000000 
 120.580000  1057.000000     0.000946  1065.997443     0.000000 
 120.600000  1071.000000     0.000934  1065.918392     0.000000 
 120.620000  1055.000000     0.000948  1065.846071     0.000000 
 120.640000  1060.000000     0.000943  1065.780155     0.000000 
 120.660000  1057.000000     0.000946  1065.720348     0.000000 
 120.680000  1016.000000     0.000984  1065.666379     0.000000 
 120.700000  1027.000000     0.000974  1065.618001     0.000000 
 120.720000  1068.000000     0.000936  1065.574989     0.000000 
 120.740000  1039.000000     0.000962  1065.537140     0.000000 
 120.760000  1039.000000     0.000962  1065.504267     0.000000 
 120.780000  1052.000000     0.000951  1065.476204     0.000000 
 120.800000  1053.000000     0.000950  1065.452799     0.000000 
 120.820000  1036.000000     0.000965  1065.433918     0.000000 
 120.840000  1027.000000     0.000974  1065.419438     0.000000 
 120.860000  1048.000000     0.000954  1065.409255     0.000000 
 120.880000  1037.000000     0.000964  1065.403274     0.000000 
 120.900000  1049.000000     0.000953  1065.401414     0.000000 
 120.920000  1067.000000     0.000937  1065.425463     0.000000 
 120.940000  1076.000000     0.000929  1065.431800     0.000000 
 120.960000  1068.000000     0.000936  1065.442089     0.000000 
 120.980000  1108.000000     0.000903  1065.456295     0.000000 
 121.000000  1104.000000     0.000906  1065.474393     0.000000 
 121.020000  1059.000000     0.000944  1065.496371     0.000000 
 121.040000  1030.000000     0.000971  1065.522226     0.000000 
 121.060000  1024.000000     0.000977  1065.551968     0.000000 
 121.080000  1070.000000     0.000935  1065.585615     0.000000 
 121.100000  1098.000000     0.000911  1065.623197     0.000000 
 121.120000  1063.000000     0.000941  1065.664757     0.000000 
 121.140000  1085.000000     0.000922  1065.710345     0.000000 
 121.160000  1085.000000     0.000922  1065.760028     0.000000 
 121.180000  1024.000000     0.000977  1065.816350     0.000000 
 121.200000  1046.000000     0.000956  1065.722688     0.000000 
 121.220000  1069.000000     0.000935  1065.786530     0.000000 
 121.240000  1043.000000     0.000959  1065.854833     0.000000 
 121.260000  1080.000000     0.000926  1065.927727     0.000000 
 121.280000  1089.000000     0.000918  1066.005362     0.000000 
 121.300000  1056.000000     0.000947  1066.087900     0.000000 
 121.320000  1085.000000     0.000922  1066.175522     0.000000 
 121.340000  1041.000000     0.000961  1066.268431     0.000000 
 121.360000  1074.000000     0.000931  1066.366848     0.000000 
 121.380000  1056.000000     0.000947  1066.471017     0.000000 
 121.400000  1044.000000     0.000958  1066.581206     0.000000 
 121.420000  1036.000000     0.000965  1066.697710     0.000000 
 121.440000  1035.000000     0.000966  1066.820854     0.000000 
 121.460000  1099.000000     0.000910  1066.950992     0.000000 
 121.480000  1081.000000     0.000925  1067.088515     0.000000 
 121.500000  1052.000000     0.000951  1067.233852     0.000000 
 121.520000  1064.000000     0.000940  1067.387473     0.000000 
 121.540000  1065.000000     0.000939  1067.549898     0.000000 
 121.560000  1049.000000     0.000953  1067.721694     0.000000 
 121.580000  1083.000000     0.000923  1067.903491     0.000000 
 121.600000  1063.000000     0.000941  1068.095982     0.000000 
 121.620000  1068.000000     0.000936  1068.299933     0.000000 
 121.640000  1060.000000     0.000943  1068.516196     0.000000 
 121.660000  1061.000000     0.000943  1068.745716     0.000000 
 121.680000  1042.000000     0.000960  1068.989552     0.000000 
 121.700000  1050.000000     0.000952  1069.248893     0.000000 
 121.720000  1069.000000     0.000935  1069.525091     0.000000 
 121.740000  1114.000000     0.000898  1069.825022     0.000000 
 121.760000  1072.000000     0.000933  1070.139886     0.000000 
 121.780000  1064.000000     0.000940  1070.477088     0.000000 
 121.800000  1061.000000     0.000943  1070.839194     0.000000 
 121.820000  1067.000000     0.000937  1071.229362     0.000000 
 121.840000  1086.000000     0.000921  1071.651557     0.000000 
 121.860000  1088.000000     0.000919  1072.110849     0.000000 
 121.880000  1038.000000     0.000963  1072.613817     0.000000 
 121.900000  1061.000000     0.000943  1073.169082     0.000000 
 121.920000  1104.000000     0.000906  1073.787996     0.000000 
 121.940000  1091.000000     0.000917  1074.485493     0.000000 
 121.960000  1083.000000     0.000923  1075.281116     0.000000 
 121.980000  1067.000000     0.000937  1076.200190     0.000000 
 122.000000  1061.000000     0.000943  1077.275092     0.000000 
 122.020000  1074.000000     0.000931  1078.546528     0.000000 
 122.040000  1062.000000     0.000942  1080.064664     0.000000 
 122.060000  1049.000000     0.000953  1081.889932     0.000000 
 122.080000  1075.000000     0.000930  1084.093279     0.000000 
 122.100000  1053.000000     0.000950  1086.755579     0.000000 
 122.120000  1050.000000     0.000952  1089.965974     0.000000 
 122.140000  1093.000000     0.000915  1093.818904     0.000000 
 122.160000  1108.000000     0.000903  1098.409686     0.000000 
 122.180000  1091.000000     0.000917  1103.828648     0.000000 
 122.200000  1112.000000     0.000899  1110.153915     0.000000 
 122.220000  1069.000000     0.000935  1117.443186     0.000000 
 122.240000  1082.000000     0.000924  1125.724863     0.000000 
 122.260000  1105.000000     0.000905  1134.988988     0.000000 
 122.280000  1077.000000     0.000929  1145.178346     0.000000 
 122.300000  1088.000000     0.000919  1156.179789     0.000000 
 122.320000  1088.000000     0.000919  1167.815680     0.000000 
 122.340000  1082.000000     0.000924  1179.835188     0.000000 
 122.360000  1116.000000     0.000896  1191.905925     0.000000 
 122.380000  1137.000000     0.000880  1203.608473     0.000000 
 122.400000  1105.000000     0.000905  1214.440192     0.000000 
 122.420000  1170.000000     0.000855  1223.839208     0.000000 
 122.440000  1196.000000     0.000836  1231.240162     0.000000 
 122.460000  1237.000000     0.000808  1236.164208     0.000000 
 122.480000  1246.000000     0.000803  1238.324843     0.000000 
 122.500000  1299.000000     0.000770  1237.771157     0.000000 
 122.520000  1368.000000     0.000731  1234.665424     0.000000 
 122.540000  1363.000000     0.000734  1229.594549     0.000000 
 122.560000  1273.000000     0.000786  1223.232913     0.000000 
 122.580000  1238.000000     0.000808  1216.304927     0.000000 
 122.600000  1212.000000     0.000825  1209.514472     0.000000 
 122.620000  1159.000000     0.000863  1203.507074     0.000000 
 122.640000  1128.000000     0.000887  1198.855476     0.000000 
 122.660000  1143.000000     0.000875  1196.056134     0.000000 
 122.680000  1083.000000     0.000923  1195.527814     0.000000 
 122.700000  1081.000000     0.000925  1197.608141     0.000000 
 122.720000  1075.000000     0.000930  1202.547197     0.000000 
 122.740000  1109.000000     0.000902  1210.498860     0.000000 
 122.760000  1100.000000     0.000909  1221.510941     0.000000 
 122.780000  1110.000000     0.000901  1235.515109     0.000000 
 122.800000  1112.000000     0.000899  1252.316993     0.000000 
 122.820000  1143.000000     0.000875  1271.586341     0.000000 
 122.840000  1115.000000     0.000897  1292.842542     0.000000 
 122.860000  1157.000000     0.000864  1315.225229     0.000000 
 122.880000  1158.000000     0.000864  1338.391249     0.000000 
 122.900000  1163.000000     0.000860  1361.116024     0.000000 
 122.920000  1203.000000     0.000831  1382.235302     0.000000 
 122.940000  1268.000000     0.000789  1400.453977     0.000000 
 122.960000  1339.000000     0.000747  1414.452990     0.000000 
 122.980000  1398.000000     0.000715  1423.067363     0.000000 
 123.000000  1493.000000     0.000670  1425.503627     0.000000 
 123.020000  1588.000000     0.000630  1421.519969     0.000000 
 123.040000  1720.000000     0.000581  1411.485483     0.000000 
 123.060000  1772.000000     0.000564  1396.287693     0.000000 
 123.080000  1729.000000     0.000578  1377.135592     0.000000 
 123.100000  1461.000000     0.000684  1355.345398     0.000000 
 123.120000  1366.000000     0.000732  1332.177376     0.000000 
 123.140000  1341.000000     0.000746  1308.744699     0.000000 
 123.160000  1264.000000     0.000791  1285.980037     0.000000 
 123.180000  1197.000000     0.000835  1264.634694     0.000000 
 123.200000  1147.000000     0.000872  1245.312387     0.000000 
 123.220000  1087.000000     0.000920  1228.396469     0.000000 
 123.240000  1118.000000     0.000894  1214.193342     0.000000 
 123.260000  1087.000000     0.000920  1202.857753     0.000000 
 123.280000  1080.000000     0.000926  1194.425952     0.000000 
 123.300000  1118.000000     0.000894  1188.827417     0.000000 
 123.320000  1139.000000     0.000878  1185.896743     0.000000 
 123.340000  1051.000000     0.000951  1185.385072     0.000000 
 123.360000  1094.000000     0.000914  1186.970116     0.000000 
 123.380000  1085.000000     0.000922  1190.263746     0.000000 
 123.400000  1109.000000     0.000902  1194.816657     0.000000 
 123.420000  1100.000000     0.000909  1200.120923     0.000000 
 123.440000  1131.000000     0.000884  1205.613978     0.000000 
 123.460000  1125.000000     0.000889  1210.691272     0.000000 
 123.480000  1199.000000     0.000834  1214.737433     0.000000 
 123.500000  1238.000000     0.000808  1217.185631     0.000000 
 123.520000  1264.000000     0.000791  1217.585525     0.000000 
 123.540000  1269.000000     0.000788  1215.694289     0.000000 
 123.560000  1328.000000     0.000753  1211.508219     0.000000 
 123.580000  1357.000000     0.000737  1205.250192     0.000000 
 123.600000  1308.000000     0.000765  1197.304725     0.000000 
 123.620000  1250.000000     0.000800  1188.132958     0.000000 
 123.640000  1233.000000     0.000811  1178.198730     0.000000 
 123.660000  1211.000000     0.000826  1167.921313     0.000000 
 123.680000  1150.000000     0.000870  1157.653952     0.000000 
 123.700000  1100.000000     0.000909  1147.679331     0.000000 
 123.720000  1084.000000     0.000923  1138.213260     0.000000 
 123.740000  1079.000000     0.000927  1129.411120     0.000000 
 123.760000  1068.000000     0.000936  1121.136952     0.000000 
 123.780000  1053.000000     0.000950  1113.923480     0.000000 
 123.800000  1060.000000     0.000943  1107.546184     0.000000 
 123.820000  1048.000000     0.000954  1101.987613     0.000000 
 123.840000  1048.000000     0.000954  1097.204819     0.000000 
 123.860000  1099.000000     0.000910  1093.136546     0.000000 
 123.880000  1123.000000     0.000890  1089.709988     0.000000 
 123.900000  1058.000000     0.000945  1086.846824     0.000000 
 123.920000  1088.000000     0.000919  1084.468237     0.000000 
 123.940000  1101.000000     0.000908  1082.498808     0.000000 
 123.960000  1099.000000     0.000910  1080.869236     0.000000 
 123.980000  1075.000000     0.000930  1079.528744     0.000000 
 124.000000  1081.000000     0.000925  1078.402882     0.000000 
 124.020000  1081.000000     0.000925  1077.457813     0.000000 
 124.040000  1014.000000     0.000986  1076.657025     0.000000 
 124.060000  1061.000000     0.000943  1075.971167     0.000000 
 124.080000  1093.000000     0.000915  1075.377060     0.000000 
 124.100000  1121.000000     0.000892  1074.856658     0.000000 
 124.120000  1071.000000     0.000934  1074.396069     0.000000 
 124.140000  1052.000000     0.000951  1073.984678     0.000000 
 124.160000  1063.000000     0.000941  1073.614395     0.000000 
 124.180000  1031.000000     0.000970  1073.279044     0.000000 
 124.200000  1076.000000     0.000929  1072.973882     0.000000 
 124.220000  1050.000000     0.000952  1072.695222     0.000000 
 124.240000  1072.000000     0.000933  1072.440157     0.000000 
 124.260000  1074.000000     0.000931  1072.206352     0.000000 
 124.280000  1062.000000     0.000942  1071.991903     0.000000 
 124.300000  1067.000000     0.000937  1071.795224     0.000000 
 124.320000  1105.000000     0.000905  1071.614979     0.000000 
 124.340000  1125.000000     0.000889  1071.450033     0.000000 
 124.360000  1065.000000     0.000939  1071.299411     0.000000 
 124.380000  1081.000000     0.000925  1071.162283     0.000000 
 124.400000  1099.000000     0.000910  1071.037941     0.000000 
 124.420000  1090.000000     0.000917  1070.925799     0.000000 
 124.440000  1068.000000     0.000936  1070.874813     0.000000 
 124.460000  1077.000000     0.000929  1070.786092     0.000000 
 124.480000  1044.000000     0.000958  1070.708553     0.000000 
 124.500000  1046.000000     0.000956  1070.642138     0.000000 
 124.520000  1089.000000     0.000918  1070.586972     0.000000 
 124.540000  1057.000000     0.000946  1070.543392     0.000000 
 124.560000  1052.000000     0.000951  1070.511991     0.000000 
 124.580000  1072.000000     0.000933  1070.493669     0.000000 
 124.600000  1058.000000     0.000945  1070.489684     0.000000 
 124.620000  1048.000000     0.000954  1070.501718     0.000000 
 124.640000  1071.000000     0.000934  1070.531928     0.000000 
 124.660000  1090.000000     0.000917  1070.582992     0.000000 
 124.680000  1086.000000     0.000921  1070.658143     0.000000 
 124.700000  1072.000000     0.000933  1070.761170     0.000000 
 124.720000  1047.000000     0.000955  1070.896381     0.000000 
 124.740000  1070.000000     0.000935  1071.068515     0.000000 
 124.760000  1079.000000     0.000927  1071.282605     0.000000 
 124.780000  1083.000000     0.000923  1071.543766     0.000000 
 124.800000  1077.000000     0.000929  1071.856925     0.000000 
 124.820000  1072.000000     0.000933  1072.226487     0.000000 
 124.840000  1079.000000     0.000927  1072.655956     0.000000 
 124.860000  1107.000000     0.000903  1073.147520     0.000000 
 124.880000  1081.000000     0.000925  1073.701619     0.000000 
 124.900000  1055.000000     0.000948  1074.316522     0.000000 
 124.920000  1081.000000     0.000925  1074.987906     0.000000 
 124.940000  1088.000000     0.000919  1075.708460     0.000000 
 124.960000  1033.000000     0.000968  1076.467480     0.000000 
 124.980000  1059.000000     0.000944  1077.250468     0.000000 
 125.000000  1091.000000     0.000917  1078.038751     0.000000 
 125.020000  1062.000000     0.000942  1078.809245     0.000000 
 125.040000  1076.000000     0.000929  1079.534622     0.000000 
 125.060000  1060.000000     0.000943  1080.184322     0.000000 
 125.080000  1058.000000     0.000945  1080.726900     0.000000 
 125.100000  1099.000000     0.000910  1081.133878     0.000000 
 125.120000  1103.000000     0.000907  1081.384584     0.000000 
 125.140000  1052.000000     0.000951  1081.470543     0.000000 
 125.160000  1081.000000     0.000925  1081.397705     0.000000 
 125.180000  1121.000000     0.000892  1081.185496     0.000000 
 125.200000  1103.000000     0.000907  1080.863165     0.000000 
 125.220000  1124.000000     0.000890  1080.465013     0.000000 
 125.240000  1103.000000     0.000907  1080.026149     0.000000 
 125.260000  1066.000000     0.000938  1079.579659     0.000000 
 125.280000  1064.000000     0.000940  1079.155238     0.000000 
 125.300000  1034.000000     0.000967  1078.778870     0.000000 
 125.320000  1069.000000     0.000935  1078.473074     0.000000 
 125.340000  1069.000000     0.000935  1078.257401     0.000000 
 125.360000  1069.000000     0.000935  1078.149015     0.000000 
 125.380000  1049.000000     0.000953  1078.163321     0.000000 
 125.400000  1076.000000     0.000929  1078.314638     0.000000 
 125.420000  1089.000000     0.000918  1078.616943     0.000000 
 125.440000  1081.000000     0.000925  1079.084683     0.000000 
 125.460000  1060.000000     0.000943  1079.733612     0.000000 
 125.480000  1092.000000     0.000916  1080.581621     0.000000 
 125.500000  1100.000000     0.000909  1081.649457     0.000000 
 125.520000  1100.000000     0.000909  1082.961228     0.000000 
 125.540000  1082.000000     0.000924  1084.544609     0.000000 
 125.560000  1064.000000     0.000940  1086.430626     0.000000 
 125.580000  1075.000000     0.000930  1088.653030     0.000000 
 125.600000  1075.000000     0.000930  1091.247316     0.000000 
 125.620000  1072.000000     0.000933  1094.249588     0.000000 
 125.640000  1068.000000     0.000936  1097.695442     0.000000 
 125.660000  1057.000000     0.000946  1101.618899     0.000000 
 125.680000  1076.000000     0.000929  1106.051029     0.000000 
 125.700000  1125.000000     0.000889  1111.017589     0.000000 
 125.720000  1106.000000     0.000904  1116.535067     0.000000 
 125.740000  1099.000000     0.000910  1122.605110     0.000000 
 125.760000  1095.000000     0.000913  1129.207952     0.000000 
 125.780000  1104.000000     0.000906  1136.295796     0.000000 
 125.800000  1111.000000     0.000900  1143.786786     0.000000 
 125.820000  1097.000000     0.000912  1151.559730     0.000000 
 125.840000  1088.000000     0.000919  1159.449532     0.000000 
 125.860000  1115.000000     0.000897  1167.243630     0.000000 
 125.880000  1139.000000     0.000878  1174.680902     0.000000 
 125.900000  1170.000000     0.000855  1181.456188     0.000000 
 125.920000  1156.000000     0.000865  1187.235015     0.000000 
 125.940000  1197.000000     0.000835  1191.682715     0.000000 
 125.960000  1248.000000     0.000801  1194.507986     0.000000 
 125.980000  1353.000000     0.000739  1195.512970     0.000000 
 126.000000  1473.000000     0.000679  1194.634295     0.000000 
 126.020000  1542.000000     0.000649  1191.958821     0.000000 
 126.040000  1532.000000     0.000653  1187.707372     0.000000 
 126.060000  1486.000000     0.000673  1182.193797     0.000000 
 126.080000  1335.000000     0.000749  1175.775810     0.000000 
 126.100000  1313.000000     0.000762  1168.812792     0.000000 
 126.120000  1234.000000     0.000810  1161.637992     0.000000 
 126.140000  1258.000000     0.000795  1154.544676     0.000000 
 126.160000  1145.000000     0.000873  1147.781897     0.000000 
 126.180000  1149.000000     0.000870  1141.555251     0.000000 
 126.200000  1120.000000     0.000893  1136.029411     0.000000 
 126.220000  1157.000000     0.000864  1131.330859     0.000000 
 126.240000  1125.000000     0.000889  1127.550338     0.000000 
 126.260000  1113.000000     0.000898  1124.745058     0.000000 
 126.280000  1075.000000     0.000930  1122.940808     0.000000 
 126.300000  1093.000000     0.000915  1122.134123     0.000000 
 126.320000  1113.000000     0.000898  1122.294461     0.000000 
 126.340000  1074.000000     0.000931  1123.366262     0.000000 
 126.360000  1067.000000     0.000937  1125.270655     0.000000 
 126.380000  1101.000000     0.000908  1127.906562     0.000000 
 126.400000  1088.000000     0.000919  1131.151050     0.000000 
 126.420000  1087.000000     0.000920  1134.859080     0.000000 
 126.440000  1082.000000     0.000924  1138.863393     0.000000 
 126.460000  1095.000000     0.000913  1142.976142     0.000000 
 126.480000  1133.000000     0.000883  1146.994636     0.000000 
 126.500000  1152.000000     0.000868  1150.715523     0.000000 
 126.520000  1168.000000     0.000856  1153.955260     0.000000 
 126.540000  1207.000000     0.000829  1156.549204     0.000000 
 126.560000  1258.000000     0.000795  1158.416475     0.000000 
 126.580000  1305.000000     0.000766  1159.534162     0.000000 
 126.600000  1311.000000     0.000763  1159.937692     0.000000 
 126.620000  1327.000000     0.000754  1159.699387     0.000000 
 126.640000  1263.000000     0.000792  1158.902248     0.000000 
 126.660000  1169.000000     0.000855  1157.617635     0.000000 
 126.680000  1136.000000     0.000880  1155.813398     0.000000 
 126.700000  1146.000000     0.000873  1153.668391     0.000000 
 126.720000  1138.000000     0.000879  1151.136367     0.000000 
 126.740000  1115.000000     0.000897  1148.152661     0.000000 
 126.760000  1127.000000     0.000887  1144.761452     0.000000 
 126.780000  1154.000000     0.000867  1141.002869     0.000000 
 126.800000  1140.000000     0.000877  1136.949098     0.000000 
 126.820000  1158.000000     0.000864  1132.698971     0.000000 
 126.840000  1129.000000     0.000886  1128.365688     0.000000 
 126.860000  1136.000000     0.000880  1124.062959     0.000000 
 126.880000  1115.000000     0.000897  1119.893929     0.000000 
 126.900000  1109.000000     0.000902  1115.944748     0.000000 
 126.920000  1111.000000     0.000900  1112.282321     0.000000 
 126.940000  1123.000000     0.000890  1108.954775     0.000000 
 126.960000  1096.000000     0.000912  1105.993186     0.000000 
 126.980000  1032.000000     0.000969  1103.413643     0.000000 
 127.000000  1060.000000     0.000943  1101.268672     0.000000 
 127.020000  1088.000000     0.000919  1099.452227     0.000000 
 127.040000  1042.000000     0.000960  1097.996879     0.000000 
 127.060000  1065.000000     0.000939  1096.880009     0.000000 
 127.080000  1081.000000     0.000925  1096.075115     0.000000 
 127.100000  1052.000000     0.000951  1095.553619     0.000000 
 127.120000  1096.000000     0.000912  1095.285651     0.000000 
 127.140000  1074.000000     0.000931  1095.239667     0.000000 
 127.160000  1077.000000     0.000929  1095.381173     0.000000 
 127.180000  1037.000000     0.000964  1095.671121     0.000000 
 127.200000  1096.000000     0.000912  1096.064470     0.000000 
 127.220000  1034.000000     0.000967  1096.509345     0.000000 
 127.240000  1049.000000     0.000953  1096.947238     0.000000 
 127.260000  1063.000000     0.000941  1097.179136     0.000000 
 127.280000  1069.000000     0.000935  1097.413391     0.000000 
 127.300000  1085.000000     0.000922  1097.453910     0.000000 
 127.320000  1088.000000     0.000919  1097.254798     0.000000 
 127.340000  1048.000000     0.000954  1096.790516     0.000000 
 127.360000  1081.000000     0.000925  1096.059912     0.000000 
 127.380000  1095.000000     0.000913  1095.085357     0.000000 
 127.400000  1090.000000     0.000917  1093.907274     0.000000 
 127.420000  1062.000000     0.000942  1092.576242     0.000000 
 127.440000  1036.000000     0.000965  1091.145301     0.000000 
 127.460000  1073.000000     0.000932  1089.664206     0.000000 
 127.480000  1085.000000     0.000922  1088.176087     0.000000 
 127.500000  1104.000000     0.000906  1086.716055     0.000000 
 127.520000  1101.000000     0.000908  1085.311007     0.000000 
 127.540000  1055.000000     0.000948  1083.980036     0.000000 
 127.560000  1048.000000     0.000954  1082.735090     0.000000 
 127.580000  1063.000000     0.000941  1081.581802     0.000000 
 127.600000  1089.000000     0.000918  1080.520526     0.000000 
 127.620000  1082.000000     0.000924  1079.547624     0.000000 
 127.640000  1092.000000     0.000916  1078.656966     0.000000 
 127.660000  1077.000000     0.000929  1077.841447     0.000000 
 127.680000  1041.000000     0.000961  1077.015109     0.000000 
 127.700000  1064.000000     0.000940  1076.330885     0.000000 
 127.720000  1051.000000     0.000951  1075.704287     0.000000 
 127.740000  1079.000000     0.000927  1075.131411     0.000000 
 127.760000  1090.000000     0.000917  1074.608841     0.000000 
 127.780000  1099.000000     0.000910  1074.133356     0.000000 
 127.800000  1080.000000     0.000926  1073.701782     0.000000 
 127.820000  1067.000000     0.000937  1073.310982     0.000000 
 127.840000  1076.000000     0.000929  1072.957907     0.000000 
 127.860000  1112.000000     0.000899  1072.639656     0.000000 
 127.880000  1061.000000     0.000943  1072.353509     0.000000 
 127.900000  1088.000000     0.000919  1072.096936     0.000000 
 127.920000  1071.000000     0.000934  1071.867572     0.000000 
 127.940000  1077.000000     0.000929  1071.663194     0.000000 
 127.960000  1067.000000     0.000937  1071.481685     0.000000 
 127.980000  1095.000000     0.000913  1071.321017     0.000000 
 128.000000  1081.000000     0.000925  1071.179234     0.000000 
 128.020000  1050.000000     0.000952  1071.054458     0.000000 
 128.040000  1086.000000     0.000921  1070.944891     0.000000 
 128.060000  1069.000000     0.000935  1070.848831     0.000000 
 128.080000  1079.000000     0.000927  1070.764688     0.000000 
 128.100000  1087.000000     0.000920  1070.690995     0.000000 
 128.120000  1074.000000     0.000931  1070.626421     0.000000 
 128.140000  1129.000000     0.000886  1070.569774     0.000000 
 128.160000  1108.000000     0.000903  1070.520004     0.000000 
 128.180000  1075.000000     0.000930  1070.476199     0.000000 
 128.200000  1077.000000     0.000929  1070.437572     0.000000 
 128.220000  1049.000000     0.000953  1070.403461     0.000000 
 128.240000  1069.000000     0.000935  1070.373303     0.000000 
 128.260000  1040.000000     0.000962  1070.346634     0.000000 
 128.280000  1054.000000     0.000949  1070.187322     0.000000 
 128.300000  1090.000000     0.000917  1070.167550     0.000000 
 128.320000  1039.000000     0.000962  1070.150278     0.000000 
 128.340000  1053.000000     0.000950  1070.135286     0.000000 
 128.360000  1032.000000     0.000969  1070.122388     0.000000 
 128.380000  1045.000000     0.000957  1070.111429     0.000000 
 128.400000  1097.000000     0.000912  1070.102277     0.000000 
 128.420000  1104.000000     0.000906  1070.094819     0.000000 
 128.440000  1049.000000     0.000953  1070.088958     0.000000 
 128.460000  1073.000000     0.000932  1070.084607     0.000000 
 128.480000  1104.000000     0.000906  1070.081690     0.000000 
 128.500000  1104.000000     0.000906  1070.080141     0.000000 
 128.520000  1079.000000     0.000927  1070.079899     0.000000 
 128.540000  1080.000000     0.000926  1070.080911     0.000000 
 128.560000  1045.000000     0.000957  1070.083126     0.000000 
 128.580000  1050.000000     0.000952  1070.086501     0.000000 
 128.600000  1066.000000     0.000938  1070.090997     0.000000 
 128.620000  1109.000000     0.000902  1070.096577     0.000000 
 128.640000  1103.000000     0.000907  1070.103208     0.000000 
 128.660000  1082.000000     0.000924  1070.110861     0.000000 
 128.680000  1111.000000     0.000900  1070.119511     0.000000 
 128.700000  1094.000000     0.000914  1070.129134     0.000000 
 128.720000  1074.000000     0.000931  1070.139708     0.000000 
 128.740000  1094.000000     0.000914  1070.151217     0.000000 
 128.760000  1092.000000     0.000916  1070.163643     0.000000 
 128.780000  1063.000000     0.000941  1070.176975     0.000000 
 128.800000  1066.000000     0.000938  1070.191200     0.000000 
 128.820000  1071.000000     0.000934  1070.206310     0.000000 
 128.840000  1074.000000     0.000931  1070.222297     0.000000 
 128.860000  1074.000000     0.000931  1070.239158     0.000000 
 128.880000  1095.000000     0.000913  1070.256888     0.000000 
 128.900000  1043.000000     0.000959  1070.275487     0.000000 
 128.920000  1037.000000     0.000964  1070.294956     0.000000 
 128.940000  1040.000000     0.000962  1070.315298     0.000000 
 128.960000  1059.000000     0.000944  1070.336518     0.000000 
 128.980000  1113.000000     0.000898  1070.358623     0.000000 
 129.000000  1079.000000     0.000927  1070.381621     0.000000 
 129.020000  1105.000000     0.000905  1070.405525     0.000000 
 129.040000  1046.000000     0.000956  1070.430345     0.000000 
 129.060000  1049.000000     0.000953  1070.456099     0.000000 
 129.080000  1076.000000     0.000929  1070.482803     0.000000 
 129.100000  1014.000000     0.000986  1070.510476     0.000000 
 129.120000  1021.000000     0.000979  1070.539142     0.000000 
 129.140000  1085.000000     0.000922  1070.568823     0.000000 
 129.160000  1063.000000     0.000941  1070.599547     0.000000 
 129.180000  1062.000000     0.000942  1070.631345     0.000000 
 129.200000  1055.000000     0.000948  1070.664248     0.000000 
 129.220000  1073.000000     0.000932  1070.698293     0.000000 
 129.240000  1060.000000     0.000943  1070.733518     0.000000 
 129.260000  1069.000000     0.000935  1070.769965     0.000000 
 129.280000  1053.000000     0.000950  1070.807681     0.000000 
 129.300000  1025.000000     0.000976  1070.846717     0.000000 
 129.320000  1077.000000     0.000929  1070.887125     0.000000 
 129.340000  1069.000000     0.000935  1070.928965     0.000000 
 129.360000  1108.000000     0.000903  1070.972302     0.000000 
 129.380000  1057.000000     0.000946  1071.017203     0.000000 
 129.400000  1023.000000     0.000978  1071.063745     0.000000 
 129.420000  1013.000000     0.000987  1071.112009     0.000000 
 129.440000  1047.000000     0.000955  1071.162084     0.000000 
 129.460000  1083.000000     0.000923  1071.214067     0.000000 
 129.480000  1041.000000     0.000961  1071.268064     0.000000 
 129.500000  1065.000000     0.000939  1071.355973     0.000000 
 129.520000  1070.000000     0.000935  1071.414610     0.000000 
 129.540000  1087.000000     0.000920  1071.475651     0.000000 
 129.560000  1099.000000     0.000910  1071.539254     0.000000 
 129.580000  1125.000000     0.000889  1071.605600     0.000000 
 129.600000  1102.000000     0.000907  1071.674893     0.000000 
 129.620000  1081.000000     0.000925  1071.747370     0.000000 
 129.640000  1071.000000     0.000934  1071.818055     0.000000 
 129.660000  1069.000000     0.000935  1071.897832     0.000000 
 129.680000  1041.000000     0.000961  1071.981788     0.000000 
 129.700000  1065.000000     0.000939  1072.070398     0.000000 
 129.720000  1092.000000     0.000916  1072.164242     0.000000 
 129.740000  1101.000000     0.000908  1072.264033     0.000000 
 129.760000  1074.000000     0.000931  1072.370651     0.000000 
 129.780000  1086.000000     0.000921  1072.485184     0.000000 
 129.800000  1033.000000     0.000968  1072.608975     0.000000 
 129.820000  1055.000000     0.000948  1072.743672     0.000000 
 129.840000  1062.000000     0.000942  1072.891291     0.000000 
 129.860000  1050.000000     0.000952  1073.054275     0.000000 
 129.880000  1084.000000     0.000923  1073.235553     0.000000 
 129.900000  1045.000000     0.000957  1073.438603     0.000000 
 129.920000  1064.000000     0.000940  1073.667496     0.000000 
 129.940000  1013.000000     0.000987  1073.926926     0.000000 
 129.960000  1020.000000     0.000980  1074.222226     0.000000 
 129.980000  1029.000000     0.000972  1074.559336     0.000000 
 130.000000  1036.000000     0.000965  1074.944748     0.000000 
 130.020000  1093.000000     0.000915  1075.385392     0.000000 
 130.040000  1051.000000     0.000951  1075.888479     0.000000 
 130.060000  1107.000000     0.000903  1076.461285     0.000000 
 130.080000  1116.000000     0.000896  1077.110878     0.000000 
 130.100000  1054.000000     0.000949  1077.843803     0.000000 
 130.120000  1042.000000     0.000960  1078.665720     0.000000 
 130.140000  1137.000000     0.000880  1079.581017     0.000000 
 130.160000  1141.000000     0.000876  1080.592407     0.000000 
 130.180000  1104.000000     0.000906  1081.700531     0.000000 
 130.200000  1143.000000     0.000875  1082.903580     0.000000 
 130.220000  1092.000000     0.000916  1084.196945     0.000000 
 130.240000  1109.000000     0.000902  1085.572893     0.000000 
 130.260000  1105.000000     0.000905  1087.020286     0.000000 
 130.280000  1054.000000     0.000949  1088.524308     0.000000 
 130.300000  1057.000000     0.000946  1090.066245     0.000000 
 130.320000  1101.000000     0.000908  1091.623326     0.000000 
 130.340000  1080.000000     0.000926  1093.168769     0.000000 
 130.360000  1044.000000     0.000958  1094.672222     0.000000 
 130.380000  1070.000000     0.000935  1096.100925     0.000000 
 130.400000  1073.000000     0.000932  1097.421943     0.000000 
 130.420000  1064.000000     0.000940  1098.605669     0.000000 
 130.440000  1110.000000     0.000901  1099.630429     0.000000 
 130.460000  1101.000000     0.000908  1100.487436     0.000000 
 130.480000  1044.000000     0.000958  1101.184866     0.000000 
 130.500000  1072.000000     0.000933  1101.749808     0.000000 
 130.520000  1116.000000     0.000896  1102.227411     0.000000 
 130.540000  1111.000000     0.000900  1102.677496     0.000000 
 130.560000  1117.000000     0.000895  1103.169697     0.000000 
 130.580000  1128.000000     0.000887  1103.778354     0.000000 
 130.600000  1101.000000     0.000908  1104.517759     0.000000 
 130.620000  1079.000000     0.000927  1105.580594     0.000000 
 130.640000  1098.000000     0.000911  1106.971699     0.000000 
 130.660000  1105.000000     0.000905  1108.749186     0.000000 
 130.680000  1073.000000     0.000932  1110.961846     0.000000 
 130.700000  1066.000000     0.000938  1113.647544     0.000000 
 130.720000  1114.000000     0.000898  1116.826324     0.000000 
 130.740000  1129.000000     0.000886  1120.519922     0.000000 
 130.760000  1096.000000     0.000912  1124.718393     0.000000 
 130.780000  1069.000000     0.000935  1129.399800     0.000000 
 130.800000  1091.000000     0.000917  1134.523461     0.000000 
 130.820000  1105.000000     0.000905  1140.028570     0.000000 
 130.840000  1101.000000     0.000908  1145.832879     0.000000 
 130.860000  1139.000000     0.000878  1151.831419     0.000000 
 130.880000  1179.000000     0.000848  1157.895459     0.000000 
 130.900000  1104.000000     0.000906  1163.872103     0.000000 
 130.920000  1150.000000     0.000870  1169.585429     0.000000 
 130.940000  1152.000000     0.000868  1174.840442     0.000000 
 130.960000  1182.000000     0.000846  1179.431367     0.000000 
 130.980000  1186.000000     0.000843  1183.155317     0.000000 
 131.000000  1221.000000     0.000819  1185.830998     0.000000 
 131.020000  1262.000000     0.000792  1187.319810     0.000000 
 131.040000  1365.000000     0.000733  1187.544692     0.000000 
 131.060000  1412.000000     0.000708  1186.501479     0.000000 
 131.080000  1613.000000     0.000620  1184.259355     0.000000 
 131.100000  1592.000000     0.000628  1180.950539     0.000000 
 131.120000  1494.000000     0.000669  1176.752573     0.000000 
 131.140000  1406.000000     0.000711  1171.868245     0.000000 
 131.160000  1350.000000     0.000741  1166.507363     0.000000 
 131.180000  1303.000000     0.000767  1160.872907     0.000000 
 131.200000  1201.000000     0.000833  1155.152037     0.000000 
 131.220000  1213.000000     0.000824  1149.511239     0.000000 
 131.240000  1193.000000     0.000838  1144.094331     0.000000 
 131.260000  1172.000000     0.000853  1139.022142     0.000000 
 131.280000  1169.000000     0.000855  1134.392992     0.000000 
 131.300000  1103.000000     0.000907  1130.283458     0.000000 
 131.320000  1091.000000     0.000917  1126.749223     0.000000 
 131.340000  1113.000000     0.000898  1123.825948     0.000000 
 131.360000  1072.000000     0.000933  1121.530196     0.000000 
 131.380000  1099.000000     0.000910  1119.860440     0.000000 
 131.400000  1065.000000     0.000939  1118.798179     0.000000 
 131.420000  1085.000000     0.000922  1118.309116     0.000000 
 131.440000  1111.000000     0.000900  1118.344354     0.000000 
 131.460000  1113.000000     0.000898  1118.831335     0.000000 
 131.480000  1081.000000     0.000925  1119.704231     0.000000 
 131.500000  1092.000000     0.000916  1120.889295     0.000000 
 131.520000  1094.000000     0.000914  1122.277661     0.000000 
 131.540000  1092.000000     0.000916  1123.762277     0.000000 
 131.560000  1122.000000     0.000891  1125.228238     0.000000 
 131.580000  1147.000000     0.000872  1126.556186     0.000000 
 131.600000  1129.000000     0.000886  1127.627957     0.000000 
 131.620000  1169.000000     0.000855  1128.334641     0.000000 
 131.640000  1179.000000     0.000848  1128.586334     0.000000 
 131.660000  1178.000000     0.000849  1128.321670     0.000000 
 131.680000  1250.000000     0.000800  1127.514530     0.000000 
 131.700000  1300.000000     0.000769  1126.175741     0.000000 
 131.720000  1344.000000     0.000744  1124.288747     0.000000 
 131.740000  1323.000000     0.000756  1122.043144     0.000000 
 131.760000  1287.000000     0.000777  1119.461015     0.000000 
 131.780000  1284.000000     0.000779  1116.630084     0.000000 
 131.800000  1208.000000     0.000828  1113.635611     0.000000 
 131.820000  1134.000000     0.000882  1110.555735     0.000000 
 131.840000  1119.000000     0.000894  1107.456682     0.000000 
 131.860000  1166.000000     0.000858  1104.401775     0.000000 
 131.880000  1117.000000     0.000895  1101.436819     0.000000 
 131.900000  1113.000000     0.000898  1098.600467     0.000000 
 131.920000  1071.000000     0.000934  1095.922443     0.000000 
 131.940000  1109.000000     0.000902  1093.424267     0.000000 
 131.960000  1097.000000     0.000912  1091.120008     0.000000 
 131.980000  1076.000000     0.000929  1089.017062     0.000000 
 132.000000  1054.000000     0.000949  1087.116980     0.000000 
 132.020000  1095.000000     0.000913  1085.416331     0.000000 
 132.040000  1080.000000     0.000926  1083.907600     0.000000 
 132.060000  1065.000000     0.000939  1082.580085     0.000000 
 132.080000  1090.000000     0.000917  1081.420771     0.000000 
 132.100000  1035.000000     0.000966  1080.415146     0.000000 
 132.120000  1050.000000     0.000952  1079.547933     0.000000 
 132.140000  1069.000000     0.000935  1078.803721     0.000000 
 132.160000  1063.000000     0.000941  1078.167476     0.000000 
 132.180000  1074.000000     0.000931  1077.624946     0.000000 
 132.200000  1045.000000     0.000957  1077.162936     0.000000 
 132.220000  1069.000000     0.000935  1076.769493     0.000000 
 132.240000  1084.000000     0.000923  1076.433994     0.000000 
 132.260000  1109.000000     0.000902  1076.147160     0.000000 
 132.280000  1068.000000     0.000936  1075.901012     0.000000 
 132.300000  1089.000000     0.000918  1075.688788     0.000000 
 132.320000  1060.000000     0.000943  1075.504832     0.000000 
 132.340000  1067.000000     0.000937  1075.344468     0.000000 
 132.360000  1051.000000     0.000951  1075.203871     0.000000 
 132.380000  1068.000000     0.000936  1075.079936     0.000000 
 132.400000  1083.000000     0.000923  1074.970167     0.000000 
 132.420000  1035.000000     0.000966  1074.872562     0.000000 
 132.440000  1033.000000     0.000968  1074.785529     0.000000 
 132.460000  1059.000000     0.000944  1074.707796     0.000000 
 132.480000  1072.000000     0.000933  1074.638352     0.000000 
 132.500000  1068.000000     0.000936  1074.576391     0.000000 
 132.520000  1062.000000     0.000942  1074.521268     0.000000 
 132.540000  1044.000000     0.000958  1074.472461     0.000000 
 132.560000  1036.000000     0.000965  1074.429551     0.000000 
 132.580000  1026.000000     0.000975  1074.392197     0.000000 
 132.600000  1040.000000     0.000962  1074.360119     0.000000 
 132.620000  1055.000000     0.000948  1074.311455     0.000000 
 132.640000  1080.000000     0.000926  1074.289439     0.000000 
 132.660000  1065.000000     0.000939  1074.272138     0.000000 
 132.680000  1085.000000     0.000922  1074.259436     0.000000 
 132.700000  1095.000000     0.000913  1074.251244     0.000000 
 132.720000  1077.000000     0.000929  1074.247501     0.000000 
 132.740000  1082.000000     0.000924  1074.248168     0.000000 
 132.760000  1091.000000     0.000917  1074.253233     0.000000 
 132.780000  1102.000000     0.000907  1074.262707     0.000000 
 132.800000  1097.000000     0.000912  1074.276625     0.000000 
 132.820000  1046.000000     0.000956  1074.295048     0.000000 
 132.840000  1101.000000     0.000908  1074.318067     0.000000 
 132.860000  1072.000000     0.000933  1074.345803     0.000000 
 132.880000  1059.000000     0.000944  1074.378413     0.000000 
 132.900000  1048.000000     0.000954  1074.416097     0.000000 
 132.920000  1072.000000     0.000933  1074.459104     0.000000 
 132.940000  1119.000000     0.000894  1074.507745     0.000000 
 132.960000  1060.000000     0.000943  1074.562405     0.000000 
 132.980000  1064.000000     0.000940  1074.621103     0.000000 
 133.000000  1046.000000     0.000956  1074.689374     0.000000 
 133.020000  1075.000000     0.000930  1074.765483     0.000000 
 133.040000  1071.000000     0.000934  1074.850356     0.000000 
 133.060000  1056.000000     0.000947  1074.945146     0.000000 
 133.080000  1066.000000     0.000938  1075.051293     0.000000 
 133.100000  1089.000000     0.000918  1075.170579     0.000000 
 133.120000  1058.000000     0.000945  1075.305212     0.000000 
 133.140000  1073.000000     0.000932  1075.457911     0.000000 
 133.160000  1072.000000     0.000933  1075.631997     0.000000 
 133.180000  1068.000000     0.000936  1075.831507     0.000000 
 133.200000  1077.000000     0.000929  1076.061294     0.000000 
 133.220000  1074.000000     0.000931  1076.327149     0.000000 
 133.240000  1086.000000     0.000921  1076.635898     0.000000 
 133.260000  1085.000000     0.000922  1076.995505     0.000000 
 133.280000  1086.000000     0.000921  1077.415140     0.000000 
 133.300000  1056.000000     0.000947  1077.905222     0.000000 
 133.320000  1108.000000     0.000903  1078.477416     0.000000 
 133.340000  1120.000000     0.000893  1079.144572     0.000000 
 133.360000  1095.000000     0.000913  1079.920602     0.000000 
 133.380000  1086.000000     0.000921  1080.820269     0.000000 
 133.400000  1118.000000     0.000894  1081.858896     0.000000 
 133.420000  1098.000000     0.000911  1083.051976     0.000000 
 133.440000  1081.000000     0.000925  1084.414693     0.000000 
 133.460000  1075.000000     0.000930  1085.961351     0.000000 
 133.480000  1041.000000     0.000961  1087.704720     0.000000 
 133.500000  1048.000000     0.000954  1089.655325     0.000000 
 133.520000  1070.000000     0.000935  1091.820686     0.000000 
 133.540000  1035.000000     0.000966  1094.204530     0.000000 
 133.560000  1065.000000     0.000939  1096.806015     0.000000 
 133.580000  1045.000000     0.000957  1099.618965     0.000000 
 133.600000  1032.000000     0.000969  1102.631141     0.000000 
 133.620000  1072.000000     0.000933  1105.823546     0.000000 
 133.640000  1068.000000     0.000936  1109.169759     0.000000 
 133.660000  1035.000000     0.000966  1112.635292     0.000000 
 133.680000  1058.000000     0.000945  1116.176962     0.000000 
 133.700000  1052.000000     0.000951  1119.742305     0.000000 
 133.720000  1056.000000     0.000947  1123.269142     0.000000 
 133.740000  1129.000000     0.000886  1126.685496     0.000000 
 133.760000  1137.000000     0.000880  1129.910218     0.000000 
 133.780000  1104.000000     0.000906  1132.854807     0.000000 
 133.800000  1062.000000     0.000942  1135.426957     0.000000 
 133.820000  1110.000000     0.000901  1137.536159     0.000000 
 133.840000  1113.000000     0.000898  1139.101218     0.000000 
 133.860000  1170.000000     0.000855  1140.058785     0.000000 
 133.880000  1170.000000     0.000855  1140.371295     0.000000 
 133.900000  1205.000000     0.000830  1140.032360     0.000000 
 133.920000  1251.000000     0.000799  1139.068139     0.000000 
 133.940000  1249.000000     0.000801  1137.534264     0.000000 
 133.960000  1229.000000     0.000814  1135.509252     0.000000 
 133.980000  1252.000000     0.000799  1133.086157     0.000000 
 134.000000  1160.000000     0.000862  1130.364341     0.000000 
 134.020000  1142.000000     0.000876  1127.442709     0.000000 
 134.040000  1141.000000     0.000876  1124.414944     0.000000 
 134.060000  1120.000000     0.000893  1121.366669     0.000000 
 134.080000  1120.000000     0.000893  1118.374048     0.000000 
 134.100000  1143.000000     0.000875  1115.503338     0.000000 
 134.120000  1097.000000     0.000912  1112.810921     0.000000 
 134.140000  1068.000000     0.000936  1110.343542     0.000000 
 134.160000  1100.000000     0.000909  1108.138592     0.000000 
 134.180000  1064.000000     0.000940  1106.224396     0.000000 
 134.200000  1075.000000     0.000930  1104.620486     0.000000 
 134.220000  1085.000000     0.000922  1103.337894     0.000000 
 134.240000  1119.000000     0.000894  1102.379471     0.000000 
 134.260000  1104.000000     0.000906  1101.740261     0.000000 
 134.280000  1084.000000     0.000923  1101.407910     0.000000 
 134.300000  1091.000000     0.000917  1101.363109     0.000000 
 134.320000  1092.000000     0.000916  1101.580038     0.000000 
 134.340000  1065.000000     0.000939  1102.026785     0.000000 
 134.360000  1080.000000     0.000926  1102.665722     0.000000 
 134.380000  1086.000000     0.000921  1103.453835     0.000000 
 134.400000  1092.000000     0.000916  1104.343064     0.000000 
 134.420000  1102.000000     0.000907  1105.280764     0.000000 
 134.440000  1090.000000     0.000917  1106.210479     0.000000 
 134.460000  1095.000000     0.000913  1107.073293     0.000000 
 134.480000  1109.000000     0.000902  1107.810005     0.000000 
 134.500000  1107.000000     0.000903  1108.364278     0.000000 
 134.520000  1078.000000     0.000928  1108.686590     0.000000 
 134.540000  1099.000000     0.000910  1108.738475     0.000000 
 134.560000  1132.000000     0.000883  1108.496166     0.000000 
 134.580000  1151.000000     0.000869  1107.952720     0.000000 
 134.600000  1146.000000     0.000873  1107.118001     0.000000 
 134.620000  1155.000000     0.000866  1106.016482     0.000000 
 134.640000  1179.000000     0.000848  1104.683519     0.000000 
 134.660000  1132.000000     0.000883  1103.160987     0.000000 
 134.680000  1121.000000     0.000892  1101.493213     0.000000 
 134.700000  1112.000000     0.000899  1099.723771     0.000000 
 134.720000  1101.000000     0.000908  1097.893321     0.000000 
 134.740000  1093.000000     0.000915  1096.038392     0.000000 
 134.760000  1102.000000     0.000907  1094.190856     0.000000 
 134.780000  1062.000000     0.000942  1092.377841     0.000000 
 134.800000  1118.000000     0.000894  1090.621872     0.000000 
 134.820000  1051.000000     0.000951  1088.941126     0.000000 
 134.840000  1075.000000     0.000930  1087.349717     0.000000 
 134.860000  1102.000000     0.000907  1085.858000     0.000000 
 134.880000  1071.000000     0.000934  1084.472890     0.000000 
 134.900000  1055.000000     0.000948  1083.198192     0.000000 
 134.920000  1065.000000     0.000939  1082.034953     0.000000 
 134.940000  1101.000000     0.000908  1080.981832     0.000000 
 134.960000  1074.000000     0.000931  1080.035484     0.000000 
 134.980000  1100.000000     0.000909  1079.190951     0.000000 
 135.000000  1051.000000     0.000951  1078.442042     0.000000 
 135.020000  1051.000000     0.000951  1077.781698     0.000000 
#######	End powder diffraction data	#######
