_publ_contact_author_name            'Danna Freedman'
_publ_contact_author_address         '77 Massachusetts Avenue (18-592), Cambridge, MA 02139, United States'
_publ_contact_author_email           danna@mit.edu


# start Validation Reply Form
_vrf_REFLT02_BiRh3_0
;
PROBLEM: The number of reflections greater than the sigma threshold
RESPONSE: The number of reflections greater than the sigma threshold and number of symmmetry-indpendent reflections are both reported as 0.
;
_vrf_PLAT881_BiRh3_0
;
PROBLEM: No Datum for _diffrn_reflns_av_R_equivalents ...     Please Do !  
RESPONSE: These values are not calculated for this powder cif.
;
_vrf_REFLT02_Bi_V_0
;
PROBLEM: The number of reflections greater than the sigma threshold
RESPONSE: The number of reflections greater than the sigma threshold and number of symmmetry-indpendent reflections are both reported as 0.
;
_vrf_PLAT881_Bi_V_0
;
PROBLEM: No Datum for _diffrn_reflns_av_R_equivalents ...     Please Do !  
RESPONSE: These values are not calculated for this powder cif.
;
_vrf_REFLT02_Rh_0
;
PROBLEM: The number of reflections greater than the sigma threshold
RESPONSE: The number of reflections greater than the sigma threshold and number of symmmetry-indpendent reflections are both reported as 0.
;
_vrf_PLAT881_Rh_0
;
PROBLEM: No Datum for _diffrn_reflns_av_R_equivalents ...     Please Do !  
RESPONSE: These values are not calculated for this powder cif.
;
_vrf_REFLT02_MgO_0
;
PROBLEM: The number of reflections greater than the sigma threshold
RESPONSE: The number of reflections greater than the sigma threshold and number of symmmetry-indpendent reflections are both reported as 0.
;
_vrf_PLAT881_MgO_0
;
PROBLEM: No Datum for _diffrn_reflns_av_R_equivalents ...     Please Do !  
RESPONSE: These values are not calculated for this powder cif.
;
# end Validation Reply Form


#######	Begin powder crystal structure	#######
data_BiRh3_0
_pd_block_id	BiRh3_0
_pd_block_diffractogram_id	Rh_Bi_postheat_minigrid_12_017_Rh_3.7513_MgO_4.0840.xy_0
_pd_phase_name
;BiRh3
;
_chemical_formula_structural        'Rh3 Bi'
_chemical_formula_sum               'Rh3 Bi'
_chemical_formula_weight	517.71

_space_group_crystal_system	cubic       
_space_group_name_H-M_alt	Pm-3m
_space_group_name_Hall	 '-P 4 2 3'
_space_group_IT_number	221
_exptl_crystal_description 'powder'
_exptl_crystal_colour ?

_cell_length_a	3.9224(2)
_cell_length_b	3.9224(2)
_cell_length_c	3.9224(2)
_cell_angle_alpha	90
_cell_angle_beta	90
_cell_angle_gamma	90
_cell_volume	60.347(10)
_exptl_crystal_density_diffrn	14.245(2)
_exptl_absorpt_coefficient_mu	44.471(7)
_diffrn_radiation_wavelength	0.406626000
_cell_formula_units_Z	1
_cell_measurement_temperature	295
_diffrn_ambient_temperature	295
_cell_measurement_pressure	21600000
_cell_measurement_theta_min	2.00237187
_cell_measurement_theta_max	10.7490025
_cell_measurement_reflns_used 13
_diffrn_reflns_number 13
_diffrn_measured_fraction_theta_full 1

loop_
	_space_group_symop_id
	_space_group_symop_operation_xyz
	  1 'x, y, z '
	  2 '-x, -y, z '
	  3 '-x, -z, -y '
	  4 '-x, -z, y '
	  5 '-x, z, -y '
	  6 '-x, z, y '
	  7 '-x, y, -z '
	  8 '-x, y, z '
	  9 '-y, -x, -z '
	 10 '-y, -x, z '
	 11 '-y, -z, -x '
	 12 '-y, -z, x '
	 13 '-y, z, -x '
	 14 '-y, z, x '
	 15 '-y, x, -z '
	 16 '-y, x, z '
	 17 '-z, -x, -y '
	 18 '-z, -x, y '
	 19 '-z, -y, -x '
	 20 '-z, -y, x '
	 21 '-z, y, -x '
	 22 '-z, y, x '
	 23 '-z, x, -y '
	 24 '-z, x, y '
	 25 'z, -x, -y '
	 26 'z, -x, y '
	 27 'z, -y, -x '
	 28 'z, -y, x '
	 29 'z, y, -x '
	 30 'z, y, x '
	 31 'z, x, -y '
	 32 'z, x, y '
	 33 'y, -x, -z '
	 34 'y, -x, z '
	 35 'y, -z, -x '
	 36 'y, -z, x '
	 37 'y, z, -x '
	 38 'y, z, x '
	 39 'y, x, -z '
	 40 'y, x, z '
	 41 'x, -y, -z '
	 42 'x, -y, z '
	 43 'x, -z, -y '
	 44 'x, -z, y '
	 45 'x, z, -y '
	 46 'x, z, y '
	 47 'x, y, -z '
	 48 '-x, -y, -z '
loop_
	_atom_site_label
	_atom_site_type_symbol
	_atom_site_site_symmetry_multiplicity
	_atom_site_fract_x
	_atom_site_fract_y
	_atom_site_fract_z
	_atom_site_occupancy
	_atom_site_B_iso_or_equiv
Bi0 Bi   1 0 0 0 1 0
Rh1 Rh   3 0 0.5 0.5 1 0
loop_
	_geom_bond_atom_site_label_1
	_geom_bond_atom_site_label_2
	_geom_bond_distance
	_geom_bond_site_symmetry_1
	_geom_bond_site_symmetry_2
	Bi0       Rh1       2.77356(15) 1_555   9_655
	Bi0       Rh1       2.77356(15) 1_555   1_554
	Bi0       Rh1       2.77356(15) 1_555   1_545
	Bi0       Rh1       2.77356(15) 1_555  11_655
	Bi0       Rh1       2.77356(15) 1_555   9_556
	Bi0       Rh1       2.77356(15) 1_555  11_565
	Bi0       Rh1       2.77356(15) 1_555  11_665
	Bi0       Rh1       2.77356(15) 1_555   1_555
	Bi0       Rh1       2.77356(15) 1_555   9_656
	Bi0       Rh1       2.77356(15) 1_555   1_544
	Bi0       Rh1       2.77356(15) 1_555   9_555
	Bi0       Rh1       2.77356(15) 1_555  11_555
	Rh1       Bi0       2.77356(15) 1_555   1_565
	Rh1       Bi0       2.77356(15) 1_555   1_556
	Rh1       Rh1       2.77356(15) 1_555  11_665
	Rh1       Rh1       2.77356(15) 1_555   9_656
	Rh1       Rh1       2.77356(15) 1_555   9_566
	Rh1       Rh1       2.77356(15) 1_555  11_566
	Rh1       Rh1       2.77356(15) 1_555   9_666
	Rh1       Bi0       2.77356(15) 1_555   1_566
	Rh1       Bi0       2.77356(15) 1_555   1_555
	Rh1       Rh1       2.77356(15) 1_555  11_666
	Rh1       Rh1       2.77356(15) 1_555  11_565
	Rh1       Rh1       2.77356(15) 1_555   9_556
	loop_
		_geom_angle_atom_site_label_1
		_geom_angle_atom_site_label_2
		_geom_angle_atom_site_label_3
		_geom_angle
		_geom_angle_site_symmetry_1
		_geom_angle_site_symmetry_2
		_geom_angle_site_symmetry_3
	Rh1       Bi0       Rh1        60.000    1_554 1_555   9_655
	Rh1       Bi0       Rh1        180.000   1_545 1_555   1_554
	Rh1       Bi0       Rh1        120.000   1_545 1_555   9_655
	Rh1       Bi0       Rh1        60.000   11_655 1_555   1_545
	Rh1       Bi0       Rh1        120.000  11_655 1_555   1_554
	Rh1       Bi0       Rh1        60.000   11_655 1_555   9_655
	Rh1       Bi0       Rh1        120.000   9_556 1_555  11_655
	Rh1       Bi0       Rh1        60.000    9_556 1_555   1_545
	Rh1       Bi0       Rh1        120.000   9_556 1_555   1_554
	Rh1       Bi0       Rh1        180.000   9_556 1_555   9_655
	Rh1       Bi0       Rh1        60.000   11_565 1_555   9_556
	Rh1       Bi0       Rh1        180.0000000(5) 11_565 1_555  11_655
	Rh1       Bi0       Rh1        120.000  11_565 1_555   1_545
	Rh1       Bi0       Rh1        60.000   11_565 1_555   1_554
	Rh1       Bi0       Rh1        120.000  11_565 1_555   9_655
	Rh1       Bi0       Rh1        90.000   11_665 1_555  11_565
	Rh1       Bi0       Rh1        120.000  11_665 1_555   9_556
	Rh1       Bi0       Rh1        90.000   11_665 1_555  11_655
	Rh1       Bi0       Rh1        120.000  11_665 1_555   1_545
	Rh1       Bi0       Rh1        60.000   11_665 1_555   1_554
	Rh1       Bi0       Rh1        60.000   11_665 1_555   9_655
	Rh1       Bi0       Rh1        60.000    1_555 1_555  11_665
	Rh1       Bi0       Rh1        60.000    1_555 1_555  11_565
	Rh1       Bi0       Rh1        60.000    1_555 1_555   9_556
	Rh1       Bi0       Rh1        120.000   1_555 1_555  11_655
	Rh1       Bi0       Rh1        90.000    1_555 1_555   1_545
	Rh1       Bi0       Rh1        90.000    1_555 1_555   1_554
	Rh1       Bi0       Rh1        120.000   1_555 1_555   9_655
	Rh1       Bi0       Rh1        60.000    9_656 1_555   1_555
	Rh1       Bi0       Rh1        60.000    9_656 1_555  11_665
	Rh1       Bi0       Rh1        120.000   9_656 1_555  11_565
	Rh1       Bi0       Rh1        90.000    9_656 1_555   9_556
	Rh1       Bi0       Rh1        60.000    9_656 1_555  11_655
	Rh1       Bi0       Rh1        60.000    9_656 1_555   1_545
	Rh1       Bi0       Rh1        120.000   9_656 1_555   1_554
	Rh1       Bi0       Rh1        90.000    9_656 1_555   9_655
	Rh1       Bi0       Rh1        120.000   1_544 1_555   9_656
	Rh1       Bi0       Rh1        180.0000000(5)  1_544 1_555   1_555
	Rh1       Bi0       Rh1        120.000   1_544 1_555  11_665
	Rh1       Bi0       Rh1        120.000   1_544 1_555  11_565
	Rh1       Bi0       Rh1        120.000   1_544 1_555   9_556
	Rh1       Bi0       Rh1        60.000    1_544 1_555  11_655
	Rh1       Bi0       Rh1        90.000    1_544 1_555   1_545
	Rh1       Bi0       Rh1        90.000    1_544 1_555   1_554
	Rh1       Bi0       Rh1        60.000    1_544 1_555   9_655
	Rh1       Bi0       Rh1        60.000    9_555 1_555   1_544
	Rh1       Bi0       Rh1        180.000   9_555 1_555   9_656
	Rh1       Bi0       Rh1        120.000   9_555 1_555   1_555
	Rh1       Bi0       Rh1        120.000   9_555 1_555  11_665
	Rh1       Bi0       Rh1        60.000    9_555 1_555  11_565
	Rh1       Bi0       Rh1        90.000    9_555 1_555   9_556
	Rh1       Bi0       Rh1        120.000   9_555 1_555  11_655
	Rh1       Bi0       Rh1        120.000   9_555 1_555   1_545
	Rh1       Bi0       Rh1        60.000    9_555 1_555   1_554
	Rh1       Bi0       Rh1        90.000    9_555 1_555   9_655
	Rh1       Bi0       Rh1        60.000   11_555 1_555   9_555
	Rh1       Bi0       Rh1        60.000   11_555 1_555   1_544
	Rh1       Bi0       Rh1        120.000  11_555 1_555   9_656
	Rh1       Bi0       Rh1        120.000  11_555 1_555   1_555
	Rh1       Bi0       Rh1        180.000  11_555 1_555  11_665
	Rh1       Bi0       Rh1        90.000   11_555 1_555  11_565
	Rh1       Bi0       Rh1        60.000   11_555 1_555   9_556
	Rh1       Bi0       Rh1        90.000   11_555 1_555  11_655
	Rh1       Bi0       Rh1        60.000   11_555 1_555   1_545
	Rh1       Bi0       Rh1        120.000  11_555 1_555   1_554
	Rh1       Bi0       Rh1        120.000  11_555 1_555   9_655
	Bi0       Rh1       Bi0        180.000   1_556 1_555   1_565
	Rh1       Rh1       Bi0        120.000  11_665 1_555   1_556
	Rh1       Rh1       Bi0        60.000   11_665 1_555   1_565
	Rh1       Rh1       Rh1        60.000    9_656 1_555  11_665
	Rh1       Rh1       Bi0        60.000    9_656 1_555   1_556
	Rh1       Rh1       Bi0        120.000   9_656 1_555   1_565
	Rh1       Rh1       Rh1        180.000   9_566 1_555   9_656
	Rh1       Rh1       Rh1        120.000   9_566 1_555  11_665
	Rh1       Rh1       Bi0        120.000   9_566 1_555   1_556
	Rh1       Rh1       Bi0        60.000    9_566 1_555   1_565
	Rh1       Rh1       Rh1        60.000   11_566 1_555   9_566
	Rh1       Rh1       Rh1        120.000  11_566 1_555   9_656
	Rh1       Rh1       Rh1        180.000  11_566 1_555  11_665
	Rh1       Rh1       Bi0        60.000   11_566 1_555   1_556
	Rh1       Rh1       Bi0        120.000  11_566 1_555   1_565
	Rh1       Rh1       Rh1        120.000   9_666 1_555  11_566
	Rh1       Rh1       Rh1        90.000    9_666 1_555   9_566
	Rh1       Rh1       Rh1        90.000    9_666 1_555   9_656
	Rh1       Rh1       Rh1        60.000    9_666 1_555  11_665
	Rh1       Rh1       Bi0        120.000   9_666 1_555   1_556
	Rh1       Rh1       Bi0        60.000    9_666 1_555   1_565
	Bi0       Rh1       Rh1        60.000    1_566 1_555   9_666
	Bi0       Rh1       Rh1        60.000    1_566 1_555  11_566
	Bi0       Rh1       Rh1        60.000    1_566 1_555   9_566
	Bi0       Rh1       Rh1        120.000   1_566 1_555   9_656
	Bi0       Rh1       Rh1        120.000   1_566 1_555  11_665
	Bi0       Rh1       Bi0        90.000    1_566 1_555   1_556
	Bi0       Rh1       Bi0        90.000    1_566 1_555   1_565
	Bi0       Rh1       Bi0        180.0000000(5)  1_555 1_555   1_566
	Bi0       Rh1       Rh1        120.000   1_555 1_555   9_666
	Bi0       Rh1       Rh1        120.000   1_555 1_555  11_566
	Bi0       Rh1       Rh1        120.000   1_555 1_555   9_566
	Bi0       Rh1       Rh1        60.000    1_555 1_555   9_656
	Bi0       Rh1       Rh1        60.000    1_555 1_555  11_665
	Bi0       Rh1       Bi0        90.000    1_555 1_555   1_556
	Bi0       Rh1       Bi0        90.000    1_555 1_555   1_565
	Rh1       Rh1       Bi0        120.000  11_666 1_555   1_555
	Rh1       Rh1       Bi0        60.000   11_666 1_555   1_566
	Rh1       Rh1       Rh1        60.000   11_666 1_555   9_666
	Rh1       Rh1       Rh1        90.000   11_666 1_555  11_566
	Rh1       Rh1       Rh1        120.000  11_666 1_555   9_566
	Rh1       Rh1       Rh1        60.000   11_666 1_555   9_656
	Rh1       Rh1       Rh1        90.000   11_666 1_555  11_665
	Rh1       Rh1       Bi0        60.000   11_666 1_555   1_556
	Rh1       Rh1       Bi0        120.000  11_666 1_555   1_565
	Rh1       Rh1       Rh1        180.000  11_565 1_555  11_666
	Rh1       Rh1       Bi0        60.000   11_565 1_555   1_555
	Rh1       Rh1       Bi0        120.000  11_565 1_555   1_566
	Rh1       Rh1       Rh1        120.000  11_565 1_555   9_666
	Rh1       Rh1       Rh1        90.000   11_565 1_555  11_566
	Rh1       Rh1       Rh1        60.000   11_565 1_555   9_566
	Rh1       Rh1       Rh1        120.000  11_565 1_555   9_656
	Rh1       Rh1       Rh1        90.000   11_565 1_555  11_665
	Rh1       Rh1       Bi0        120.000  11_565 1_555   1_556
	Rh1       Rh1       Bi0        60.000   11_565 1_555   1_565
	Rh1       Rh1       Rh1        60.000    9_556 1_555  11_565
	Rh1       Rh1       Rh1        120.000   9_556 1_555  11_666
	Rh1       Rh1       Bi0        60.000    9_556 1_555   1_555
	Rh1       Rh1       Bi0        120.000   9_556 1_555   1_566
	Rh1       Rh1       Rh1        180.000   9_556 1_555   9_666
	Rh1       Rh1       Rh1        60.000    9_556 1_555  11_566
	Rh1       Rh1       Rh1        90.000    9_556 1_555   9_566
	Rh1       Rh1       Rh1        90.000    9_556 1_555   9_656
	Rh1       Rh1       Rh1        120.000   9_556 1_555  11_665
	Rh1       Rh1       Bi0        60.000    9_556 1_555   1_556
	Rh1       Rh1       Bi0        120.000   9_556 1_555   1_565
#######	End powder crystal structure	#######


#######	Begin powder crystal structure	#######
data_Bi_V_0

_pd_block_id	Bi_V_0
_pd_block_diffractogram_id	Rh_Bi_postheat_minigrid_12_017_Rh_3.7513_MgO_4.0840.xy_0
_pd_phase_name
;Bi_V
;
_chemical_formula_structural        'Bi'
_chemical_formula_sum               'Bi'
_chemical_formula_weight	208.98

_space_group_crystal_system	cubic       
_space_group_name_H-M_alt	Im-3m
_space_group_name_Hall	 '-I 4 2 3'
_space_group_IT_number	229
_exptl_crystal_description 'powder'
_exptl_crystal_colour ?

_cell_length_a	3.6490(6)
_cell_length_b	3.6490(6)
_cell_length_c	3.6490(6)
_cell_angle_alpha	90
_cell_angle_beta	90
_cell_angle_gamma	90
_cell_volume	48.59(2)
_exptl_crystal_density_diffrn	14.285(7)
_exptl_absorpt_coefficient_mu	43.66(2)
_diffrn_radiation_wavelength	0.406626000
_cell_formula_units_Z	2
_cell_measurement_temperature	295
_diffrn_ambient_temperature	295
_cell_measurement_pressure	21600000
_cell_measurement_theta_min	2.00237187
_cell_measurement_theta_max	10.7490025
_cell_measurement_reflns_used 5
_diffrn_reflns_number 5
_diffrn_measured_fraction_theta_full 1

loop_
	_space_group_symop_id
	_space_group_symop_operation_xyz
	  1 'x, y, z '
	  2 '-x, -y, z '
	  3 '-x, -z, -y '
	  4 '-x, -z, y '
	  5 '-x, z, -y '
	  6 '-x, z, y '
	  7 '-x, y, -z '
	  8 '-x, y, z '
	  9 '-y, -x, -z '
	 10 '-y, -x, z '
	 11 '-y, -z, -x '
	 12 '-y, -z, x '
	 13 '-y, z, -x '
	 14 '-y, z, x '
	 15 '-y, x, -z '
	 16 '-y, x, z '
	 17 '-z, -x, -y '
	 18 '-z, -x, y '
	 19 '-z, -y, -x '
	 20 '-z, -y, x '
	 21 '-z, y, -x '
	 22 '-z, y, x '
	 23 '-z, x, -y '
	 24 '-z, x, y '
	 25 'z, -x, -y '
	 26 'z, -x, y '
	 27 'z, -y, -x '
	 28 'z, -y, x '
	 29 'z, y, -x '
	 30 'z, y, x '
	 31 'z, x, -y '
	 32 'z, x, y '
	 33 'y, -x, -z '
	 34 'y, -x, z '
	 35 'y, -z, -x '
	 36 'y, -z, x '
	 37 'y, z, -x '
	 38 'y, z, x '
	 39 'y, x, -z '
	 40 'y, x, z '
	 41 'x, -y, -z '
	 42 'x, -y, z '
	 43 'x, -z, -y '
	 44 'x, -z, y '
	 45 'x, z, -y '
	 46 'x, z, y '
	 47 'x, y, -z '
	 48 '-x, -y, -z '
	 49 'x+1/2, y+1/2, z+1/2 '
	 50 '-x+1/2, -y+1/2, z+1/2 '
	 51 '-x+1/2, -z+1/2, -y+1/2 '
	 52 '-x+1/2, -z+1/2, y+1/2 '
	 53 '-x+1/2, z+1/2, -y+1/2 '
	 54 '-x+1/2, z+1/2, y+1/2 '
	 55 '-x+1/2, y+1/2, -z+1/2 '
	 56 '-x+1/2, y+1/2, z+1/2 '
	 57 '-y+1/2, -x+1/2, -z+1/2 '
	 58 '-y+1/2, -x+1/2, z+1/2 '
	 59 '-y+1/2, -z+1/2, -x+1/2 '
	 60 '-y+1/2, -z+1/2, x+1/2 '
	 61 '-y+1/2, z+1/2, -x+1/2 '
	 62 '-y+1/2, z+1/2, x+1/2 '
	 63 '-y+1/2, x+1/2, -z+1/2 '
	 64 '-y+1/2, x+1/2, z+1/2 '
	 65 '-z+1/2, -x+1/2, -y+1/2 '
	 66 '-z+1/2, -x+1/2, y+1/2 '
	 67 '-z+1/2, -y+1/2, -x+1/2 '
	 68 '-z+1/2, -y+1/2, x+1/2 '
	 69 '-z+1/2, y+1/2, -x+1/2 '
	 70 '-z+1/2, y+1/2, x+1/2 '
	 71 '-z+1/2, x+1/2, -y+1/2 '
	 72 '-z+1/2, x+1/2, y+1/2 '
	 73 'z+1/2, -x+1/2, -y+1/2 '
	 74 'z+1/2, -x+1/2, y+1/2 '
	 75 'z+1/2, -y+1/2, -x+1/2 '
	 76 'z+1/2, -y+1/2, x+1/2 '
	 77 'z+1/2, y+1/2, -x+1/2 '
	 78 'z+1/2, y+1/2, x+1/2 '
	 79 'z+1/2, x+1/2, -y+1/2 '
	 80 'z+1/2, x+1/2, y+1/2 '
	 81 'y+1/2, -x+1/2, -z+1/2 '
	 82 'y+1/2, -x+1/2, z+1/2 '
	 83 'y+1/2, -z+1/2, -x+1/2 '
	 84 'y+1/2, -z+1/2, x+1/2 '
	 85 'y+1/2, z+1/2, -x+1/2 '
	 86 'y+1/2, z+1/2, x+1/2 '
	 87 'y+1/2, x+1/2, -z+1/2 '
	 88 'y+1/2, x+1/2, z+1/2 '
	 89 'x+1/2, -y+1/2, -z+1/2 '
	 90 'x+1/2, -y+1/2, z+1/2 '
	 91 'x+1/2, -z+1/2, -y+1/2 '
	 92 'x+1/2, -z+1/2, y+1/2 '
	 93 'x+1/2, z+1/2, -y+1/2 '
	 94 'x+1/2, z+1/2, y+1/2 '
	 95 'x+1/2, y+1/2, -z+1/2 '
	 96 '-x+1/2, -y+1/2, -z+1/2 '
loop_
	_atom_site_label
	_atom_site_type_symbol
	_atom_site_site_symmetry_multiplicity
	_atom_site_fract_x
	_atom_site_fract_y
	_atom_site_fract_z
	_atom_site_occupancy
	_atom_site_B_iso_or_equiv
Bi1 Bi   2 0 0 0 1 0
loop_
	_geom_bond_atom_site_label_1
	_geom_bond_atom_site_label_2
	_geom_bond_distance
	_geom_bond_site_symmetry_1
	_geom_bond_site_symmetry_2
	Bi1       Bi1       3.1601(5) 1_555  49_554
	Bi1       Bi1       3.1601(5) 1_555  49_544
	Bi1       Bi1       3.1601(5) 1_555  49_545
	Bi1       Bi1       3.1601(5) 1_555  49_455
	Bi1       Bi1       3.1601(5) 1_555  49_454
	Bi1       Bi1       3.1601(5) 1_555  49_445
	Bi1       Bi1       3.1601(5) 1_555  49_555
	Bi1       Bi1       3.1601(5) 1_555  49_444
	loop_
		_geom_angle_atom_site_label_1
		_geom_angle_atom_site_label_2
		_geom_angle_atom_site_label_3
		_geom_angle
		_geom_angle_site_symmetry_1
		_geom_angle_site_symmetry_2
		_geom_angle_site_symmetry_3
	Bi1       Bi1       Bi1        70.529   49_544 1_555  49_554
	Bi1       Bi1       Bi1        70.529   49_545 1_555  49_544
	Bi1       Bi1       Bi1        109.471  49_545 1_555  49_554
	Bi1       Bi1       Bi1        109.471  49_455 1_555  49_545
	Bi1       Bi1       Bi1        180.0000000(19) 49_455 1_555  49_544
	Bi1       Bi1       Bi1        109.471  49_455 1_555  49_554
	Bi1       Bi1       Bi1        70.529   49_454 1_555  49_455
	Bi1       Bi1       Bi1        180.0000000(19) 49_454 1_555  49_545
	Bi1       Bi1       Bi1        109.471  49_454 1_555  49_544
	Bi1       Bi1       Bi1        70.529   49_454 1_555  49_554
	Bi1       Bi1       Bi1        109.471  49_445 1_555  49_454
	Bi1       Bi1       Bi1        70.529   49_445 1_555  49_455
	Bi1       Bi1       Bi1        70.529   49_445 1_555  49_545
	Bi1       Bi1       Bi1        109.471  49_445 1_555  49_544
	Bi1       Bi1       Bi1        180.000  49_445 1_555  49_554
	Bi1       Bi1       Bi1        109.471  49_555 1_555  49_445
	Bi1       Bi1       Bi1        109.471  49_555 1_555  49_454
	Bi1       Bi1       Bi1        70.529   49_555 1_555  49_455
	Bi1       Bi1       Bi1        70.529   49_555 1_555  49_545
	Bi1       Bi1       Bi1        109.471  49_555 1_555  49_544
	Bi1       Bi1       Bi1        70.529   49_555 1_555  49_554
	Bi1       Bi1       Bi1        180.0000000(19) 49_444 1_555  49_555
	Bi1       Bi1       Bi1        70.529   49_444 1_555  49_445
	Bi1       Bi1       Bi1        70.529   49_444 1_555  49_454
	Bi1       Bi1       Bi1        109.471  49_444 1_555  49_455
	Bi1       Bi1       Bi1        109.471  49_444 1_555  49_545
	Bi1       Bi1       Bi1        70.529   49_444 1_555  49_544
	Bi1       Bi1       Bi1        109.471  49_444 1_555  49_554
#######	End powder crystal structure	#######


#######	Begin powder crystal structure	#######
data_Rh_0
_pd_block_id	Rh_0
_pd_block_diffractogram_id	Rh_Bi_postheat_minigrid_12_017_Rh_3.7513_MgO_4.0840.xy_0
_pd_phase_name
;Rh
;
_chemical_formula_structural        'Rh'
_chemical_formula_sum               'Rh'
_chemical_formula_weight	102.91

_space_group_crystal_system	cubic
_space_group_name_H-M_alt	Fm-3m
_space_group_name_Hall	 '-F 4 2 3'
_space_group_IT_number	225
_exptl_crystal_description 'powder'
_exptl_crystal_colour ?

_cell_length_a	3.73517(17)
_cell_length_b	3.73517(17)
_cell_length_c	3.73517(17)
_cell_angle_alpha	90
_cell_angle_beta	90
_cell_angle_gamma	90
_cell_volume 52.111(7)
_exptl_crystal_density_diffrn	13.1164(18)
_exptl_absorpt_coefficient_mu	41.530(6)
_diffrn_radiation_wavelength	0.406626000
_cell_formula_units_Z	4
_cell_measurement_temperature	295
_diffrn_ambient_temperature	295
_cell_measurement_pressure	21600000
_cell_measurement_theta_min	2.00237187
_cell_measurement_theta_max	10.7490025
_cell_measurement_reflns_used 5
_diffrn_reflns_number 5
_diffrn_measured_fraction_theta_full 1

loop_
	_space_group_symop_id
	_space_group_symop_operation_xyz
	  1 'x, y, z '
	  2 '-x, -y, z '
	  3 '-x, -z, -y '
	  4 '-x, -z, y '
	  5 '-x, z, -y '
	  6 '-x, z, y '
	  7 '-x, y, -z '
	  8 '-x, y, z '
	  9 '-y, -x, -z '
	 10 '-y, -x, z '
	 11 '-y, -z, -x '
	 12 '-y, -z, x '
	 13 '-y, z, -x '
	 14 '-y, z, x '
	 15 '-y, x, -z '
	 16 '-y, x, z '
	 17 '-z, -x, -y '
	 18 '-z, -x, y '
	 19 '-z, -y, -x '
	 20 '-z, -y, x '
	 21 '-z, y, -x '
	 22 '-z, y, x '
	 23 '-z, x, -y '
	 24 '-z, x, y '
	 25 'z, -x, -y '
	 26 'z, -x, y '
	 27 'z, -y, -x '
	 28 'z, -y, x '
	 29 'z, y, -x '
	 30 'z, y, x '
	 31 'z, x, -y '
	 32 'z, x, y '
	 33 'y, -x, -z '
	 34 'y, -x, z '
	 35 'y, -z, -x '
	 36 'y, -z, x '
	 37 'y, z, -x '
	 38 'y, z, x '
	 39 'y, x, -z '
	 40 'y, x, z '
	 41 'x, -y, -z '
	 42 'x, -y, z '
	 43 'x, -z, -y '
	 44 'x, -z, y '
	 45 'x, z, -y '
	 46 'x, z, y '
	 47 'x, y, -z '
	 48 '-x, -y, -z '
	 49 'x+1/2, y+1/2, z '
	 50 '-x+1/2, -y+1/2, z '
	 51 '-x+1/2, -z+1/2, -y '
	 52 '-x+1/2, -z+1/2, y '
	 53 '-x+1/2, z+1/2, -y '
	 54 '-x+1/2, z+1/2, y '
	 55 '-x+1/2, y+1/2, -z '
	 56 '-x+1/2, y+1/2, z '
	 57 '-y+1/2, -x+1/2, -z '
	 58 '-y+1/2, -x+1/2, z '
	 59 '-y+1/2, -z+1/2, -x '
	 60 '-y+1/2, -z+1/2, x '
	 61 '-y+1/2, z+1/2, -x '
	 62 '-y+1/2, z+1/2, x '
	 63 '-y+1/2, x+1/2, -z '
	 64 '-y+1/2, x+1/2, z '
	 65 '-z+1/2, -x+1/2, -y '
	 66 '-z+1/2, -x+1/2, y '
	 67 '-z+1/2, -y+1/2, -x '
	 68 '-z+1/2, -y+1/2, x '
	 69 '-z+1/2, y+1/2, -x '
	 70 '-z+1/2, y+1/2, x '
	 71 '-z+1/2, x+1/2, -y '
	 72 '-z+1/2, x+1/2, y '
	 73 'z+1/2, -x+1/2, -y '
	 74 'z+1/2, -x+1/2, y '
	 75 'z+1/2, -y+1/2, -x '
	 76 'z+1/2, -y+1/2, x '
	 77 'z+1/2, y+1/2, -x '
	 78 'z+1/2, y+1/2, x '
	 79 'z+1/2, x+1/2, -y '
	 80 'z+1/2, x+1/2, y '
	 81 'y+1/2, -x+1/2, -z '
	 82 'y+1/2, -x+1/2, z '
	 83 'y+1/2, -z+1/2, -x '
	 84 'y+1/2, -z+1/2, x '
	 85 'y+1/2, z+1/2, -x '
	 86 'y+1/2, z+1/2, x '
	 87 'y+1/2, x+1/2, -z '
	 88 'y+1/2, x+1/2, z '
	 89 'x+1/2, -y+1/2, -z '
	 90 'x+1/2, -y+1/2, z '
	 91 'x+1/2, -z+1/2, -y '
	 92 'x+1/2, -z+1/2, y '
	 93 'x+1/2, z+1/2, -y '
	 94 'x+1/2, z+1/2, y '
	 95 'x+1/2, y+1/2, -z '
	 96 '-x+1/2, -y+1/2, -z '
	 97 'x+1/2, y, z+1/2 '
	 98 '-x+1/2, -y, z+1/2 '
	 99 '-x+1/2, -z, -y+1/2 '
	100 '-x+1/2, -z, y+1/2 '
	101 '-x+1/2, z, -y+1/2 '
	102 '-x+1/2, z, y+1/2 '
	103 '-x+1/2, y, -z+1/2 '
	104 '-x+1/2, y, z+1/2 '
	105 '-y+1/2, -x, -z+1/2 '
	106 '-y+1/2, -x, z+1/2 '
	107 '-y+1/2, -z, -x+1/2 '
	108 '-y+1/2, -z, x+1/2 '
	109 '-y+1/2, z, -x+1/2 '
	110 '-y+1/2, z, x+1/2 '
	111 '-y+1/2, x, -z+1/2 '
	112 '-y+1/2, x, z+1/2 '
	113 '-z+1/2, -x, -y+1/2 '
	114 '-z+1/2, -x, y+1/2 '
	115 '-z+1/2, -y, -x+1/2 '
	116 '-z+1/2, -y, x+1/2 '
	117 '-z+1/2, y, -x+1/2 '
	118 '-z+1/2, y, x+1/2 '
	119 '-z+1/2, x, -y+1/2 '
	120 '-z+1/2, x, y+1/2 '
	121 'z+1/2, -x, -y+1/2 '
	122 'z+1/2, -x, y+1/2 '
	123 'z+1/2, -y, -x+1/2 '
	124 'z+1/2, -y, x+1/2 '
	125 'z+1/2, y, -x+1/2 '
	126 'z+1/2, y, x+1/2 '
	127 'z+1/2, x, -y+1/2 '
	128 'z+1/2, x, y+1/2 '
	129 'y+1/2, -x, -z+1/2 '
	130 'y+1/2, -x, z+1/2 '
	131 'y+1/2, -z, -x+1/2 '
	132 'y+1/2, -z, x+1/2 '
	133 'y+1/2, z, -x+1/2 '
	134 'y+1/2, z, x+1/2 '
	135 'y+1/2, x, -z+1/2 '
	136 'y+1/2, x, z+1/2 '
	137 'x+1/2, -y, -z+1/2 '
	138 'x+1/2, -y, z+1/2 '
	139 'x+1/2, -z, -y+1/2 '
	140 'x+1/2, -z, y+1/2 '
	141 'x+1/2, z, -y+1/2 '
	142 'x+1/2, z, y+1/2 '
	143 'x+1/2, y, -z+1/2 '
	144 '-x+1/2, -y, -z+1/2 '
	145 'x, y+1/2, z+1/2 '
	146 '-x, -y+1/2, z+1/2 '
	147 '-x, -z+1/2, -y+1/2 '
	148 '-x, -z+1/2, y+1/2 '
	149 '-x, z+1/2, -y+1/2 '
	150 '-x, z+1/2, y+1/2 '
	151 '-x, y+1/2, -z+1/2 '
	152 '-x, y+1/2, z+1/2 '
	153 '-y, -x+1/2, -z+1/2 '
	154 '-y, -x+1/2, z+1/2 '
	155 '-y, -z+1/2, -x+1/2 '
	156 '-y, -z+1/2, x+1/2 '
	157 '-y, z+1/2, -x+1/2 '
	158 '-y, z+1/2, x+1/2 '
	159 '-y, x+1/2, -z+1/2 '
	160 '-y, x+1/2, z+1/2 '
	161 '-z, -x+1/2, -y+1/2 '
	162 '-z, -x+1/2, y+1/2 '
	163 '-z, -y+1/2, -x+1/2 '
	164 '-z, -y+1/2, x+1/2 '
	165 '-z, y+1/2, -x+1/2 '
	166 '-z, y+1/2, x+1/2 '
	167 '-z, x+1/2, -y+1/2 '
	168 '-z, x+1/2, y+1/2 '
	169 'z, -x+1/2, -y+1/2 '
	170 'z, -x+1/2, y+1/2 '
	171 'z, -y+1/2, -x+1/2 '
	172 'z, -y+1/2, x+1/2 '
	173 'z, y+1/2, -x+1/2 '
	174 'z, y+1/2, x+1/2 '
	175 'z, x+1/2, -y+1/2 '
	176 'z, x+1/2, y+1/2 '
	177 'y, -x+1/2, -z+1/2 '
	178 'y, -x+1/2, z+1/2 '
	179 'y, -z+1/2, -x+1/2 '
	180 'y, -z+1/2, x+1/2 '
	181 'y, z+1/2, -x+1/2 '
	182 'y, z+1/2, x+1/2 '
	183 'y, x+1/2, -z+1/2 '
	184 'y, x+1/2, z+1/2 '
	185 'x, -y+1/2, -z+1/2 '
	186 'x, -y+1/2, z+1/2 '
	187 'x, -z+1/2, -y+1/2 '
	188 'x, -z+1/2, y+1/2 '
	189 'x, z+1/2, -y+1/2 '
	190 'x, z+1/2, y+1/2 '
	191 'x, y+1/2, -z+1/2 '
	192 '-x, -y+1/2, -z+1/2 '
loop_
	_atom_site_label
	_atom_site_type_symbol
	_atom_site_site_symmetry_multiplicity
	_atom_site_fract_x
	_atom_site_fract_y
	_atom_site_fract_z
	_atom_site_occupancy
	_atom_site_B_iso_or_equiv
Rh1 Rh   4 0 0 0 1 0
loop_
	_geom_bond_atom_site_label_1
	_geom_bond_atom_site_label_2
	_geom_bond_distance
	_geom_bond_site_symmetry_1
	_geom_bond_site_symmetry_2
	Rh1       Rh1       2.64117(12) 1_555  97_455
	Rh1       Rh1       2.64117(12) 1_555  49_455
	Rh1       Rh1       2.64117(12) 1_555 145_545
	Rh1       Rh1       2.64117(12) 1_555  49_545
	Rh1       Rh1       2.64117(12) 1_555  97_554
	Rh1       Rh1       2.64117(12) 1_555 145_554
	Rh1       Rh1       2.64117(12) 1_555  49_445
	Rh1       Rh1       2.64117(12) 1_555  97_454
	Rh1       Rh1       2.64117(12) 1_555 145_544
	Rh1       Rh1       2.64117(12) 1_555  49_555
	Rh1       Rh1       2.64117(12) 1_555  97_555
	Rh1       Rh1       2.64117(12) 1_555 145_555
	loop_
		_geom_angle_atom_site_label_1
		_geom_angle_atom_site_label_2
		_geom_angle_atom_site_label_3
		_geom_angle
		_geom_angle_site_symmetry_1
		_geom_angle_site_symmetry_2
		_geom_angle_site_symmetry_3
	Rh1       Rh1       Rh1        60.000   49_455 1_555  97_455
	Rh1       Rh1       Rh1        120.000 145_545 1_555  49_455
	Rh1       Rh1       Rh1        60.000  145_545 1_555  97_455
	Rh1       Rh1       Rh1        60.000   49_545 1_555 145_545
	Rh1       Rh1       Rh1        180.0000000(4) 49_545 1_555  49_455
	Rh1       Rh1       Rh1        120.000  49_545 1_555  97_455
	Rh1       Rh1       Rh1        60.000   97_554 1_555  49_545
	Rh1       Rh1       Rh1        120.000  97_554 1_555 145_545
	Rh1       Rh1       Rh1        120.000  97_554 1_555  49_455
	Rh1       Rh1       Rh1        180.000  97_554 1_555  97_455
	Rh1       Rh1       Rh1        60.000  145_554 1_555  97_554
	Rh1       Rh1       Rh1        120.000 145_554 1_555  49_545
	Rh1       Rh1       Rh1        180.000 145_554 1_555 145_545
	Rh1       Rh1       Rh1        60.000  145_554 1_555  49_455
	Rh1       Rh1       Rh1        120.000 145_554 1_555  97_455
	Rh1       Rh1       Rh1        120.000  49_445 1_555 145_554
	Rh1       Rh1       Rh1        120.000  49_445 1_555  97_554
	Rh1       Rh1       Rh1        90.000   49_445 1_555  49_545
	Rh1       Rh1       Rh1        60.000   49_445 1_555 145_545
	Rh1       Rh1       Rh1        90.000   49_445 1_555  49_455
	Rh1       Rh1       Rh1        60.000   49_445 1_555  97_455
	Rh1       Rh1       Rh1        60.000   97_454 1_555  49_445
	Rh1       Rh1       Rh1        60.000   97_454 1_555 145_554
	Rh1       Rh1       Rh1        90.000   97_454 1_555  97_554
	Rh1       Rh1       Rh1        120.000  97_454 1_555  49_545
	Rh1       Rh1       Rh1        120.000  97_454 1_555 145_545
	Rh1       Rh1       Rh1        60.000   97_454 1_555  49_455
	Rh1       Rh1       Rh1        90.000   97_454 1_555  97_455
	Rh1       Rh1       Rh1        60.000  145_544 1_555  97_454
	Rh1       Rh1       Rh1        60.000  145_544 1_555  49_445
	Rh1       Rh1       Rh1        90.000  145_544 1_555 145_554
	Rh1       Rh1       Rh1        60.000  145_544 1_555  97_554
	Rh1       Rh1       Rh1        60.000  145_544 1_555  49_545
	Rh1       Rh1       Rh1        90.000  145_544 1_555 145_545
	Rh1       Rh1       Rh1        120.000 145_544 1_555  49_455
	Rh1       Rh1       Rh1        120.000 145_544 1_555  97_455
	Rh1       Rh1       Rh1        120.000  49_555 1_555 145_544
	Rh1       Rh1       Rh1        120.000  49_555 1_555  97_454
	Rh1       Rh1       Rh1        180.000  49_555 1_555  49_445
	Rh1       Rh1       Rh1        60.000   49_555 1_555 145_554
	Rh1       Rh1       Rh1        60.000   49_555 1_555  97_554
	Rh1       Rh1       Rh1        90.000   49_555 1_555  49_545
	Rh1       Rh1       Rh1        120.000  49_555 1_555 145_545
	Rh1       Rh1       Rh1        90.000   49_555 1_555  49_455
	Rh1       Rh1       Rh1        120.000  49_555 1_555  97_455
	Rh1       Rh1       Rh1        60.000   97_555 1_555  49_555
	Rh1       Rh1       Rh1        120.000  97_555 1_555 145_544
	Rh1       Rh1       Rh1        180.000  97_555 1_555  97_454
	Rh1       Rh1       Rh1        120.000  97_555 1_555  49_445
	Rh1       Rh1       Rh1        120.000  97_555 1_555 145_554
	Rh1       Rh1       Rh1        90.000   97_555 1_555  97_554
	Rh1       Rh1       Rh1        60.000   97_555 1_555  49_545
	Rh1       Rh1       Rh1        60.000   97_555 1_555 145_545
	Rh1       Rh1       Rh1        120.000  97_555 1_555  49_455
	Rh1       Rh1       Rh1        90.000   97_555 1_555  97_455
	Rh1       Rh1       Rh1        60.000  145_555 1_555  97_555
	Rh1       Rh1       Rh1        60.000  145_555 1_555  49_555
	Rh1       Rh1       Rh1        180.000 145_555 1_555 145_544
	Rh1       Rh1       Rh1        120.000 145_555 1_555  97_454
	Rh1       Rh1       Rh1        120.000 145_555 1_555  49_445
	Rh1       Rh1       Rh1        90.000  145_555 1_555 145_554
	Rh1       Rh1       Rh1        120.000 145_555 1_555  97_554
	Rh1       Rh1       Rh1        120.000 145_555 1_555  49_545
	Rh1       Rh1       Rh1        90.000  145_555 1_555 145_545
	Rh1       Rh1       Rh1        60.000  145_555 1_555  49_455
	Rh1       Rh1       Rh1        60.000  145_555 1_555  97_455
#######	End powder crystal structure	#######


#######	Begin powder crystal structure	#######
data_MgO_0

_pd_block_id	MgO_0
_pd_block_diffractogram_id	Rh_Bi_postheat_minigrid_12_017_Rh_3.7513_MgO_4.0840.xy_0
_pd_phase_name
;MgO
;
_chemical_formula_structural        'Mg O'
_chemical_formula_sum               'Mg O'
_chemical_formula_weight	40.304

_space_group_crystal_system	cubic
_space_group_name_H-M_alt	Fm-3m
_space_group_name_Hall	 '-F 4 2 3'
_space_group_IT_number	225
_exptl_crystal_description 'powder'
_exptl_crystal_colour ?

_cell_length_a	4.0639(3)
_cell_length_b	4.0639(3)
_cell_length_c	4.0639(3)
_cell_angle_alpha	90
_cell_angle_beta	90
_cell_angle_gamma	90
_cell_volume	67.116(12)
_exptl_crystal_density_diffrn	3.9887(7)
_exptl_absorpt_coefficient_mu	0.26745(5)
_diffrn_radiation_wavelength	0.406626000
_cell_formula_units_Z	4
_cell_measurement_temperature	295
_diffrn_ambient_temperature	295
_cell_measurement_pressure	21600000
_cell_measurement_theta_min	2.00237187
_cell_measurement_theta_max	10.7490025
_cell_measurement_reflns_used 5
_diffrn_reflns_number 5
_diffrn_measured_fraction_theta_full 1

loop_
	_space_group_symop_id
	_space_group_symop_operation_xyz
	  1 'x, y, z '
	  2 '-x, -y, z '
	  3 '-x, -z, -y '
	  4 '-x, -z, y '
	  5 '-x, z, -y '
	  6 '-x, z, y '
	  7 '-x, y, -z '
	  8 '-x, y, z '
	  9 '-y, -x, -z '
	 10 '-y, -x, z '
	 11 '-y, -z, -x '
	 12 '-y, -z, x '
	 13 '-y, z, -x '
	 14 '-y, z, x '
	 15 '-y, x, -z '
	 16 '-y, x, z '
	 17 '-z, -x, -y '
	 18 '-z, -x, y '
	 19 '-z, -y, -x '
	 20 '-z, -y, x '
	 21 '-z, y, -x '
	 22 '-z, y, x '
	 23 '-z, x, -y '
	 24 '-z, x, y '
	 25 'z, -x, -y '
	 26 'z, -x, y '
	 27 'z, -y, -x '
	 28 'z, -y, x '
	 29 'z, y, -x '
	 30 'z, y, x '
	 31 'z, x, -y '
	 32 'z, x, y '
	 33 'y, -x, -z '
	 34 'y, -x, z '
	 35 'y, -z, -x '
	 36 'y, -z, x '
	 37 'y, z, -x '
	 38 'y, z, x '
	 39 'y, x, -z '
	 40 'y, x, z '
	 41 'x, -y, -z '
	 42 'x, -y, z '
	 43 'x, -z, -y '
	 44 'x, -z, y '
	 45 'x, z, -y '
	 46 'x, z, y '
	 47 'x, y, -z '
	 48 '-x, -y, -z '
	 49 'x+1/2, y+1/2, z '
	 50 '-x+1/2, -y+1/2, z '
	 51 '-x+1/2, -z+1/2, -y '
	 52 '-x+1/2, -z+1/2, y '
	 53 '-x+1/2, z+1/2, -y '
	 54 '-x+1/2, z+1/2, y '
	 55 '-x+1/2, y+1/2, -z '
	 56 '-x+1/2, y+1/2, z '
	 57 '-y+1/2, -x+1/2, -z '
	 58 '-y+1/2, -x+1/2, z '
	 59 '-y+1/2, -z+1/2, -x '
	 60 '-y+1/2, -z+1/2, x '
	 61 '-y+1/2, z+1/2, -x '
	 62 '-y+1/2, z+1/2, x '
	 63 '-y+1/2, x+1/2, -z '
	 64 '-y+1/2, x+1/2, z '
	 65 '-z+1/2, -x+1/2, -y '
	 66 '-z+1/2, -x+1/2, y '
	 67 '-z+1/2, -y+1/2, -x '
	 68 '-z+1/2, -y+1/2, x '
	 69 '-z+1/2, y+1/2, -x '
	 70 '-z+1/2, y+1/2, x '
	 71 '-z+1/2, x+1/2, -y '
	 72 '-z+1/2, x+1/2, y '
	 73 'z+1/2, -x+1/2, -y '
	 74 'z+1/2, -x+1/2, y '
	 75 'z+1/2, -y+1/2, -x '
	 76 'z+1/2, -y+1/2, x '
	 77 'z+1/2, y+1/2, -x '
	 78 'z+1/2, y+1/2, x '
	 79 'z+1/2, x+1/2, -y '
	 80 'z+1/2, x+1/2, y '
	 81 'y+1/2, -x+1/2, -z '
	 82 'y+1/2, -x+1/2, z '
	 83 'y+1/2, -z+1/2, -x '
	 84 'y+1/2, -z+1/2, x '
	 85 'y+1/2, z+1/2, -x '
	 86 'y+1/2, z+1/2, x '
	 87 'y+1/2, x+1/2, -z '
	 88 'y+1/2, x+1/2, z '
	 89 'x+1/2, -y+1/2, -z '
	 90 'x+1/2, -y+1/2, z '
	 91 'x+1/2, -z+1/2, -y '
	 92 'x+1/2, -z+1/2, y '
	 93 'x+1/2, z+1/2, -y '
	 94 'x+1/2, z+1/2, y '
	 95 'x+1/2, y+1/2, -z '
	 96 '-x+1/2, -y+1/2, -z '
	 97 'x+1/2, y, z+1/2 '
	 98 '-x+1/2, -y, z+1/2 '
	 99 '-x+1/2, -z, -y+1/2 '
	100 '-x+1/2, -z, y+1/2 '
	101 '-x+1/2, z, -y+1/2 '
	102 '-x+1/2, z, y+1/2 '
	103 '-x+1/2, y, -z+1/2 '
	104 '-x+1/2, y, z+1/2 '
	105 '-y+1/2, -x, -z+1/2 '
	106 '-y+1/2, -x, z+1/2 '
	107 '-y+1/2, -z, -x+1/2 '
	108 '-y+1/2, -z, x+1/2 '
	109 '-y+1/2, z, -x+1/2 '
	110 '-y+1/2, z, x+1/2 '
	111 '-y+1/2, x, -z+1/2 '
	112 '-y+1/2, x, z+1/2 '
	113 '-z+1/2, -x, -y+1/2 '
	114 '-z+1/2, -x, y+1/2 '
	115 '-z+1/2, -y, -x+1/2 '
	116 '-z+1/2, -y, x+1/2 '
	117 '-z+1/2, y, -x+1/2 '
	118 '-z+1/2, y, x+1/2 '
	119 '-z+1/2, x, -y+1/2 '
	120 '-z+1/2, x, y+1/2 '
	121 'z+1/2, -x, -y+1/2 '
	122 'z+1/2, -x, y+1/2 '
	123 'z+1/2, -y, -x+1/2 '
	124 'z+1/2, -y, x+1/2 '
	125 'z+1/2, y, -x+1/2 '
	126 'z+1/2, y, x+1/2 '
	127 'z+1/2, x, -y+1/2 '
	128 'z+1/2, x, y+1/2 '
	129 'y+1/2, -x, -z+1/2 '
	130 'y+1/2, -x, z+1/2 '
	131 'y+1/2, -z, -x+1/2 '
	132 'y+1/2, -z, x+1/2 '
	133 'y+1/2, z, -x+1/2 '
	134 'y+1/2, z, x+1/2 '
	135 'y+1/2, x, -z+1/2 '
	136 'y+1/2, x, z+1/2 '
	137 'x+1/2, -y, -z+1/2 '
	138 'x+1/2, -y, z+1/2 '
	139 'x+1/2, -z, -y+1/2 '
	140 'x+1/2, -z, y+1/2 '
	141 'x+1/2, z, -y+1/2 '
	142 'x+1/2, z, y+1/2 '
	143 'x+1/2, y, -z+1/2 '
	144 '-x+1/2, -y, -z+1/2 '
	145 'x, y+1/2, z+1/2 '
	146 '-x, -y+1/2, z+1/2 '
	147 '-x, -z+1/2, -y+1/2 '
	148 '-x, -z+1/2, y+1/2 '
	149 '-x, z+1/2, -y+1/2 '
	150 '-x, z+1/2, y+1/2 '
	151 '-x, y+1/2, -z+1/2 '
	152 '-x, y+1/2, z+1/2 '
	153 '-y, -x+1/2, -z+1/2 '
	154 '-y, -x+1/2, z+1/2 '
	155 '-y, -z+1/2, -x+1/2 '
	156 '-y, -z+1/2, x+1/2 '
	157 '-y, z+1/2, -x+1/2 '
	158 '-y, z+1/2, x+1/2 '
	159 '-y, x+1/2, -z+1/2 '
	160 '-y, x+1/2, z+1/2 '
	161 '-z, -x+1/2, -y+1/2 '
	162 '-z, -x+1/2, y+1/2 '
	163 '-z, -y+1/2, -x+1/2 '
	164 '-z, -y+1/2, x+1/2 '
	165 '-z, y+1/2, -x+1/2 '
	166 '-z, y+1/2, x+1/2 '
	167 '-z, x+1/2, -y+1/2 '
	168 '-z, x+1/2, y+1/2 '
	169 'z, -x+1/2, -y+1/2 '
	170 'z, -x+1/2, y+1/2 '
	171 'z, -y+1/2, -x+1/2 '
	172 'z, -y+1/2, x+1/2 '
	173 'z, y+1/2, -x+1/2 '
	174 'z, y+1/2, x+1/2 '
	175 'z, x+1/2, -y+1/2 '
	176 'z, x+1/2, y+1/2 '
	177 'y, -x+1/2, -z+1/2 '
	178 'y, -x+1/2, z+1/2 '
	179 'y, -z+1/2, -x+1/2 '
	180 'y, -z+1/2, x+1/2 '
	181 'y, z+1/2, -x+1/2 '
	182 'y, z+1/2, x+1/2 '
	183 'y, x+1/2, -z+1/2 '
	184 'y, x+1/2, z+1/2 '
	185 'x, -y+1/2, -z+1/2 '
	186 'x, -y+1/2, z+1/2 '
	187 'x, -z+1/2, -y+1/2 '
	188 'x, -z+1/2, y+1/2 '
	189 'x, z+1/2, -y+1/2 '
	190 'x, z+1/2, y+1/2 '
	191 'x, y+1/2, -z+1/2 '
	192 '-x, -y+1/2, -z+1/2 '
loop_
	_atom_site_label
	_atom_site_type_symbol
	_atom_site_site_symmetry_multiplicity
	_atom_site_fract_x
	_atom_site_fract_y
	_atom_site_fract_z
	_atom_site_occupancy
	_atom_site_B_iso_or_equiv
Mg1 Mg   4 0 0 0 1 0
O1 O   4 0.5 0.5 0.5 1 0
loop_
	_geom_bond_atom_site_label_1
	_geom_bond_atom_site_label_2
	_geom_bond_distance
	_geom_bond_site_symmetry_1
	_geom_bond_site_symmetry_2
	Mg1       O1        2.03195(13) 1_555  49_444
	Mg1       O1        2.03195(13) 1_555  49_445
	Mg1       O1        2.03195(13) 1_555 145_544
	Mg1       O1        2.03195(13) 1_555  97_454
	Mg1       O1        2.03195(13) 1_555  97_444
	Mg1       O1        2.03195(13) 1_555 145_444
	Mg1       Mg1       2.87361(18) 1_555 145_554
	Mg1       Mg1       2.87361(18) 1_555  97_554
	Mg1       Mg1       2.87361(18) 1_555  49_545
	Mg1       Mg1       2.87361(18) 1_555 145_545
	Mg1       Mg1       2.87361(18) 1_555  97_455
	Mg1       Mg1       2.87361(18) 1_555  49_455
	Mg1       Mg1       2.87361(18) 1_555  49_555
	Mg1       Mg1       2.87361(18) 1_555  97_555
	Mg1       Mg1       2.87361(18) 1_555 145_555
	Mg1       Mg1       2.87361(18) 1_555 145_544
	Mg1       Mg1       2.87361(18) 1_555  97_454
	Mg1       Mg1       2.87361(18) 1_555  49_445
	O1        Mg1       2.03195(13) 1_555 145_655
	O1        Mg1       2.03195(13) 1_555 145_555
	O1        Mg1       2.03195(13) 1_555  97_565
	O1        Mg1       2.03195(13) 1_555  97_555
	O1        Mg1       2.03195(13) 1_555  49_556
	O1        Mg1       2.03195(13) 1_555  49_555
	O1        O1        2.87361(18) 1_555  97_554
	O1        O1        2.87361(18) 1_555 145_554
	O1        O1        2.87361(18) 1_555  49_545
	O1        O1        2.87361(18) 1_555  49_455
	O1        O1        2.87361(18) 1_555 145_545
	O1        O1        2.87361(18) 1_555  97_455
	O1        O1        2.87361(18) 1_555  49_555
	O1        O1        2.87361(18) 1_555  97_555
	O1        O1        2.87361(18) 1_555 145_555
	O1        O1        2.87361(18) 1_555 145_544
	O1        O1        2.87361(18) 1_555  97_454
	O1        O1        2.87361(18) 1_555  49_445
	loop_
		_geom_angle_atom_site_label_1
		_geom_angle_atom_site_label_2
		_geom_angle_atom_site_label_3
		_geom_angle
		_geom_angle_site_symmetry_1
		_geom_angle_site_symmetry_2
		_geom_angle_site_symmetry_3
	O1        Mg1       O1         180.000  49_445 1_555  49_444
	O1        Mg1       O1         90.000  145_544 1_555  49_445
	O1        Mg1       O1         90.000  145_544 1_555  49_444
	O1        Mg1       O1         90.000   97_454 1_555 145_544
	O1        Mg1       O1         90.000   97_454 1_555  49_445
	O1        Mg1       O1         90.000   97_454 1_555  49_444
	O1        Mg1       O1         180.000  97_444 1_555  97_454
	O1        Mg1       O1         90.000   97_444 1_555 145_544
	O1        Mg1       O1         90.000   97_444 1_555  49_445
	O1        Mg1       O1         90.000   97_444 1_555  49_444
	O1        Mg1       O1         90.000  145_444 1_555  97_444
	O1        Mg1       O1         90.000  145_444 1_555  97_454
	O1        Mg1       O1         180.000 145_444 1_555 145_544
	O1        Mg1       O1         90.000  145_444 1_555  49_445
	O1        Mg1       O1         90.000  145_444 1_555  49_444
	Mg1       Mg1       O1         90.000  145_554 1_555 145_444
	Mg1       Mg1       O1         135.000 145_554 1_555  97_444
	Mg1       Mg1       O1         45.000  145_554 1_555  97_454
	Mg1       Mg1       O1         90.000  145_554 1_555 145_544
	Mg1       Mg1       O1         135.000 145_554 1_555  49_445
	Mg1       Mg1       O1         45.000  145_554 1_555  49_444
	Mg1       Mg1       Mg1        60.000   97_554 1_555 145_554
	Mg1       Mg1       O1         135.000  97_554 1_555 145_444
	Mg1       Mg1       O1         90.000   97_554 1_555  97_444
	Mg1       Mg1       O1         90.000   97_554 1_555  97_454
	Mg1       Mg1       O1         45.000   97_554 1_555 145_544
	Mg1       Mg1       O1         135.000  97_554 1_555  49_445
	Mg1       Mg1       O1         45.000   97_554 1_555  49_444
	Mg1       Mg1       Mg1        60.000   49_545 1_555  97_554
	Mg1       Mg1       Mg1        120.000  49_545 1_555 145_554
	Mg1       Mg1       O1         135.000  49_545 1_555 145_444
	Mg1       Mg1       O1         45.000   49_545 1_555  97_444
	Mg1       Mg1       O1         135.000  49_545 1_555  97_454
	Mg1       Mg1       O1         45.000   49_545 1_555 145_544
	Mg1       Mg1       O1         90.000   49_545 1_555  49_445
	Mg1       Mg1       O1         90.000   49_545 1_555  49_444
	Mg1       Mg1       Mg1        60.000  145_545 1_555  49_545
	Mg1       Mg1       Mg1        120.000 145_545 1_555  97_554
	Mg1       Mg1       Mg1        180.000 145_545 1_555 145_554
	Mg1       Mg1       O1         90.000  145_545 1_555 145_444
	Mg1       Mg1       O1         45.000  145_545 1_555  97_444
	Mg1       Mg1       O1         135.000 145_545 1_555  97_454
	Mg1       Mg1       O1         90.000  145_545 1_555 145_544
	Mg1       Mg1       O1         45.000  145_545 1_555  49_445
	Mg1       Mg1       O1         135.000 145_545 1_555  49_444
	Mg1       Mg1       Mg1        60.000   97_455 1_555 145_545
	Mg1       Mg1       Mg1        120.000  97_455 1_555  49_545
	Mg1       Mg1       Mg1        180.0000000(7) 97_455 1_555  97_554
	Mg1       Mg1       Mg1        120.000  97_455 1_555 145_554
	Mg1       Mg1       O1         45.000   97_455 1_555 145_444
	Mg1       Mg1       O1         90.000   97_455 1_555  97_444
	Mg1       Mg1       O1         90.000   97_455 1_555  97_454
	Mg1       Mg1       O1         135.000  97_455 1_555 145_544
	Mg1       Mg1       O1         45.000   97_455 1_555  49_445
	Mg1       Mg1       O1         135.000  97_455 1_555  49_444
	Mg1       Mg1       Mg1        60.000   49_455 1_555  97_455
	Mg1       Mg1       Mg1        120.000  49_455 1_555 145_545
	Mg1       Mg1       Mg1        180.000  49_455 1_555  49_545
	Mg1       Mg1       Mg1        120.000  49_455 1_555  97_554
	Mg1       Mg1       Mg1        60.000   49_455 1_555 145_554
	Mg1       Mg1       O1         45.000   49_455 1_555 145_444
	Mg1       Mg1       O1         135.000  49_455 1_555  97_444
	Mg1       Mg1       O1         45.000   49_455 1_555  97_454
	Mg1       Mg1       O1         135.000  49_455 1_555 145_544
	Mg1       Mg1       O1         90.000   49_455 1_555  49_445
	Mg1       Mg1       O1         90.000   49_455 1_555  49_444
	Mg1       Mg1       Mg1        90.000   49_555 1_555  49_455
	Mg1       Mg1       Mg1        120.000  49_555 1_555  97_455
	Mg1       Mg1       Mg1        120.000  49_555 1_555 145_545
	Mg1       Mg1       Mg1        90.000   49_555 1_555  49_545
	Mg1       Mg1       Mg1        60.000   49_555 1_555  97_554
	Mg1       Mg1       Mg1        60.000   49_555 1_555 145_554
	Mg1       Mg1       O1         135.000  49_555 1_555 145_444
	Mg1       Mg1       O1         135.000  49_555 1_555  97_444
	Mg1       Mg1       O1         45.000   49_555 1_555  97_454
	Mg1       Mg1       O1         45.000   49_555 1_555 145_544
	Mg1       Mg1       O1         90.000   49_555 1_555  49_445
	Mg1       Mg1       O1         90.000   49_555 1_555  49_444
	Mg1       Mg1       Mg1        60.000   97_555 1_555  49_555
	Mg1       Mg1       Mg1        120.000  97_555 1_555  49_455
	Mg1       Mg1       Mg1        90.000   97_555 1_555  97_455
	Mg1       Mg1       Mg1        60.000   97_555 1_555 145_545
	Mg1       Mg1       Mg1        60.000   97_555 1_555  49_545
	Mg1       Mg1       Mg1        90.000   97_555 1_555  97_554
	Mg1       Mg1       Mg1        120.000  97_555 1_555 145_554
	Mg1       Mg1       O1         135.000  97_555 1_555 145_444
	Mg1       Mg1       O1         90.000   97_555 1_555  97_444
	Mg1       Mg1       O1         90.000   97_555 1_555  97_454
	Mg1       Mg1       O1         45.000   97_555 1_555 145_544
	Mg1       Mg1       O1         45.000   97_555 1_555  49_445
	Mg1       Mg1       O1         135.000  97_555 1_555  49_444
	Mg1       Mg1       Mg1        60.000  145_555 1_555  97_555
	Mg1       Mg1       Mg1        60.000  145_555 1_555  49_555
	Mg1       Mg1       Mg1        60.000  145_555 1_555  49_455
	Mg1       Mg1       Mg1        60.000  145_555 1_555  97_455
	Mg1       Mg1       Mg1        90.000  145_555 1_555 145_545
	Mg1       Mg1       Mg1        120.000 145_555 1_555  49_545
	Mg1       Mg1       Mg1        120.000 145_555 1_555  97_554
	Mg1       Mg1       Mg1        90.000  145_555 1_555 145_554
	Mg1       Mg1       O1         90.000  145_555 1_555 145_444
	Mg1       Mg1       O1         135.000 145_555 1_555  97_444
	Mg1       Mg1       O1         45.000  145_555 1_555  97_454
	Mg1       Mg1       O1         90.000  145_555 1_555 145_544
	Mg1       Mg1       O1         45.000  145_555 1_555  49_445
	Mg1       Mg1       O1         135.000 145_555 1_555  49_444
	Mg1       Mg1       Mg1        180.0000000(7) 145_544 1_555 145_555
	Mg1       Mg1       Mg1        120.000 145_544 1_555  97_555
	Mg1       Mg1       Mg1        120.000 145_544 1_555  49_555
	Mg1       Mg1       Mg1        120.000 145_544 1_555  49_455
	Mg1       Mg1       Mg1        120.000 145_544 1_555  97_455
	Mg1       Mg1       Mg1        90.000  145_544 1_555 145_545
	Mg1       Mg1       Mg1        60.000  145_544 1_555  49_545
	Mg1       Mg1       Mg1        60.000  145_544 1_555  97_554
	Mg1       Mg1       Mg1        90.000  145_544 1_555 145_554
	Mg1       Mg1       O1         90.000  145_544 1_555 145_444
	Mg1       Mg1       O1         45.000  145_544 1_555  97_444
	Mg1       Mg1       O1         135.000 145_544 1_555  97_454
	Mg1       Mg1       O1         90.000  145_544 1_555 145_544
	Mg1       Mg1       O1         135.000 145_544 1_555  49_445
	Mg1       Mg1       O1         45.000  145_544 1_555  49_444
	Mg1       Mg1       Mg1        60.000   97_454 1_555 145_544
	Mg1       Mg1       Mg1        120.000  97_454 1_555 145_555
	Mg1       Mg1       Mg1        180.000  97_454 1_555  97_555
	Mg1       Mg1       Mg1        120.000  97_454 1_555  49_555
	Mg1       Mg1       Mg1        60.000   97_454 1_555  49_455
	Mg1       Mg1       Mg1        90.000   97_454 1_555  97_455
	Mg1       Mg1       Mg1        120.000  97_454 1_555 145_545
	Mg1       Mg1       Mg1        120.000  97_454 1_555  49_545
	Mg1       Mg1       Mg1        90.000   97_454 1_555  97_554
	Mg1       Mg1       Mg1        60.000   97_454 1_555 145_554
	Mg1       Mg1       O1         45.000   97_454 1_555 145_444
	Mg1       Mg1       O1         90.000   97_454 1_555  97_444
	Mg1       Mg1       O1         90.000   97_454 1_555  97_454
	Mg1       Mg1       O1         135.000  97_454 1_555 145_544
	Mg1       Mg1       O1         135.000  97_454 1_555  49_445
	Mg1       Mg1       O1         45.000   97_454 1_555  49_444
	Mg1       Mg1       Mg1        60.000   49_445 1_555  97_454
	Mg1       Mg1       Mg1        60.000   49_445 1_555 145_544
	Mg1       Mg1       Mg1        120.000  49_445 1_555 145_555
	Mg1       Mg1       Mg1        120.000  49_445 1_555  97_555
	Mg1       Mg1       Mg1        180.0000000(7) 49_445 1_555  49_555
	Mg1       Mg1       Mg1        90.000   49_445 1_555  49_455
	Mg1       Mg1       Mg1        60.000   49_445 1_555  97_455
	Mg1       Mg1       Mg1        60.000   49_445 1_555 145_545
	Mg1       Mg1       Mg1        90.000   49_445 1_555  49_545
	Mg1       Mg1       Mg1        120.000  49_445 1_555  97_554
	Mg1       Mg1       Mg1        120.000  49_445 1_555 145_554
	Mg1       Mg1       O1         45.000   49_445 1_555 145_444
	Mg1       Mg1       O1         45.000   49_445 1_555  97_444
	Mg1       Mg1       O1         135.000  49_445 1_555  97_454
	Mg1       Mg1       O1         135.000  49_445 1_555 145_544
	Mg1       Mg1       O1         90.000   49_445 1_555  49_445
	Mg1       Mg1       O1         90.000   49_445 1_555  49_444
	Mg1       O1        Mg1        180.000 145_555 1_555 145_655
	Mg1       O1        Mg1        90.000   97_565 1_555 145_555
	Mg1       O1        Mg1        90.000   97_565 1_555 145_655
	Mg1       O1        Mg1        180.000  97_555 1_555  97_565
	Mg1       O1        Mg1        90.000   97_555 1_555 145_555
	Mg1       O1        Mg1        90.000   97_555 1_555 145_655
	Mg1       O1        Mg1        90.000   49_556 1_555  97_555
	Mg1       O1        Mg1        90.000   49_556 1_555  97_565
	Mg1       O1        Mg1        90.000   49_556 1_555 145_555
	Mg1       O1        Mg1        90.000   49_556 1_555 145_655
	Mg1       O1        Mg1        180.000  49_555 1_555  49_556
	Mg1       O1        Mg1        90.000   49_555 1_555  97_555
	Mg1       O1        Mg1        90.000   49_555 1_555  97_565
	Mg1       O1        Mg1        90.000   49_555 1_555 145_555
	Mg1       O1        Mg1        90.000   49_555 1_555 145_655
	O1        O1        Mg1        45.000   97_554 1_555  49_555
	O1        O1        Mg1        135.000  97_554 1_555  49_556
	O1        O1        Mg1        90.000   97_554 1_555  97_555
	O1        O1        Mg1        90.000   97_554 1_555  97_565
	O1        O1        Mg1        135.000  97_554 1_555 145_555
	O1        O1        Mg1        45.000   97_554 1_555 145_655
	O1        O1        O1         60.000  145_554 1_555  97_554
	O1        O1        Mg1        45.000  145_554 1_555  49_555
	O1        O1        Mg1        135.000 145_554 1_555  49_556
	O1        O1        Mg1        135.000 145_554 1_555  97_555
	O1        O1        Mg1        45.000  145_554 1_555  97_565
	O1        O1        Mg1        90.000  145_554 1_555 145_555
	O1        O1        Mg1        90.000  145_554 1_555 145_655
	O1        O1        O1         120.000  49_545 1_555 145_554
	O1        O1        O1         60.000   49_545 1_555  97_554
	O1        O1        Mg1        90.000   49_545 1_555  49_555
	O1        O1        Mg1        90.000   49_545 1_555  49_556
	O1        O1        Mg1        45.000   49_545 1_555  97_555
	O1        O1        Mg1        135.000  49_545 1_555  97_565
	O1        O1        Mg1        135.000  49_545 1_555 145_555
	O1        O1        Mg1        45.000   49_545 1_555 145_655
	O1        O1        O1         180.000  49_455 1_555  49_545
	O1        O1        O1         60.000   49_455 1_555 145_554
	O1        O1        O1         120.000  49_455 1_555  97_554
	O1        O1        Mg1        90.000   49_455 1_555  49_555
	O1        O1        Mg1        90.000   49_455 1_555  49_556
	O1        O1        Mg1        135.000  49_455 1_555  97_555
	O1        O1        Mg1        45.000   49_455 1_555  97_565
	O1        O1        Mg1        45.000   49_455 1_555 145_555
	O1        O1        Mg1        135.000  49_455 1_555 145_655
	O1        O1        O1         120.000 145_545 1_555  49_455
	O1        O1        O1         60.000  145_545 1_555  49_545
	O1        O1        O1         180.000 145_545 1_555 145_554
	O1        O1        O1         120.000 145_545 1_555  97_554
	O1        O1        Mg1        135.000 145_545 1_555  49_555
	O1        O1        Mg1        45.000  145_545 1_555  49_556
	O1        O1        Mg1        45.000  145_545 1_555  97_555
	O1        O1        Mg1        135.000 145_545 1_555  97_565
	O1        O1        Mg1        90.000  145_545 1_555 145_555
	O1        O1        Mg1        90.000  145_545 1_555 145_655
	O1        O1        O1         60.000   97_455 1_555 145_545
	O1        O1        O1         60.000   97_455 1_555  49_455
	O1        O1        O1         120.000  97_455 1_555  49_545
	O1        O1        O1         120.000  97_455 1_555 145_554
	O1        O1        O1         179.9999988(7) 97_455 1_555  97_554
	O1        O1        Mg1        135.000  97_455 1_555  49_555
	O1        O1        Mg1        45.000   97_455 1_555  49_556
	O1        O1        Mg1        90.000   97_455 1_555  97_555
	O1        O1        Mg1        90.000   97_455 1_555  97_565
	O1        O1        Mg1        45.000   97_455 1_555 145_555
	O1        O1        Mg1        135.000  97_455 1_555 145_655
	O1        O1        O1         120.000  49_555 1_555  97_455
	O1        O1        O1         120.000  49_555 1_555 145_545
	O1        O1        O1         90.000   49_555 1_555  49_455
	O1        O1        O1         90.000   49_555 1_555  49_545
	O1        O1        O1         60.000   49_555 1_555 145_554
	O1        O1        O1         60.000   49_555 1_555  97_554
	O1        O1        Mg1        90.000   49_555 1_555  49_555
	O1        O1        Mg1        90.000   49_555 1_555  49_556
	O1        O1        Mg1        135.000  49_555 1_555  97_555
	O1        O1        Mg1        45.000   49_555 1_555  97_565
	O1        O1        Mg1        135.000  49_555 1_555 145_555
	O1        O1        Mg1        45.000   49_555 1_555 145_655
	O1        O1        O1         60.000   97_555 1_555  49_555
	O1        O1        O1         90.000   97_555 1_555  97_455
	O1        O1        O1         60.000   97_555 1_555 145_545
	O1        O1        O1         120.000  97_555 1_555  49_455
	O1        O1        O1         60.000   97_555 1_555  49_545
	O1        O1        O1         120.000  97_555 1_555 145_554
	O1        O1        O1         90.000   97_555 1_555  97_554
	O1        O1        Mg1        135.000  97_555 1_555  49_555
	O1        O1        Mg1        45.000   97_555 1_555  49_556
	O1        O1        Mg1        90.000   97_555 1_555  97_555
	O1        O1        Mg1        90.000   97_555 1_555  97_565
	O1        O1        Mg1        135.000  97_555 1_555 145_555
	O1        O1        Mg1        45.000   97_555 1_555 145_655
	O1        O1        O1         60.000  145_555 1_555  97_555
	O1        O1        O1         60.000  145_555 1_555  49_555
	O1        O1        O1         60.000  145_555 1_555  97_455
	O1        O1        O1         90.000  145_555 1_555 145_545
	O1        O1        O1         60.000  145_555 1_555  49_455
	O1        O1        O1         120.000 145_555 1_555  49_545
	O1        O1        O1         90.000  145_555 1_555 145_554
	O1        O1        O1         120.000 145_555 1_555  97_554
	O1        O1        Mg1        135.000 145_555 1_555  49_555
	O1        O1        Mg1        45.000  145_555 1_555  49_556
	O1        O1        Mg1        135.000 145_555 1_555  97_555
	O1        O1        Mg1        45.000  145_555 1_555  97_565
	O1        O1        Mg1        90.000  145_555 1_555 145_555
	O1        O1        Mg1        90.000  145_555 1_555 145_655
	O1        O1        O1         180.0000000(7) 145_544 1_555 145_555
	O1        O1        O1         120.000 145_544 1_555  97_555
	O1        O1        O1         120.000 145_544 1_555  49_555
	O1        O1        O1         120.000 145_544 1_555  97_455
	O1        O1        O1         90.000  145_544 1_555 145_545
	O1        O1        O1         120.000 145_544 1_555  49_455
	O1        O1        O1         60.000  145_544 1_555  49_545
	O1        O1        O1         90.000  145_544 1_555 145_554
	O1        O1        O1         60.000  145_544 1_555  97_554
	O1        O1        Mg1        45.000  145_544 1_555  49_555
	O1        O1        Mg1        135.000 145_544 1_555  49_556
	O1        O1        Mg1        45.000  145_544 1_555  97_555
	O1        O1        Mg1        135.000 145_544 1_555  97_565
	O1        O1        Mg1        90.000  145_544 1_555 145_555
	O1        O1        Mg1        90.000  145_544 1_555 145_655
	O1        O1        O1         60.000   97_454 1_555 145_544
	O1        O1        O1         120.000  97_454 1_555 145_555
	O1        O1        O1         180.000  97_454 1_555  97_555
	O1        O1        O1         120.000  97_454 1_555  49_555
	O1        O1        O1         90.000   97_454 1_555  97_455
	O1        O1        O1         120.000  97_454 1_555 145_545
	O1        O1        O1         60.000   97_454 1_555  49_455
	O1        O1        O1         120.000  97_454 1_555  49_545
	O1        O1        O1         60.000   97_454 1_555 145_554
	O1        O1        O1         90.000   97_454 1_555  97_554
	O1        O1        Mg1        45.000   97_454 1_555  49_555
	O1        O1        Mg1        135.000  97_454 1_555  49_556
	O1        O1        Mg1        90.000   97_454 1_555  97_555
	O1        O1        Mg1        90.000   97_454 1_555  97_565
	O1        O1        Mg1        45.000   97_454 1_555 145_555
	O1        O1        Mg1        135.000  97_454 1_555 145_655
	O1        O1        O1         60.000   49_445 1_555  97_454
	O1        O1        O1         60.000   49_445 1_555 145_544
	O1        O1        O1         120.000  49_445 1_555 145_555
	O1        O1        O1         120.000  49_445 1_555  97_555
	O1        O1        O1         180.000  49_445 1_555  49_555
	O1        O1        O1         60.000   49_445 1_555  97_455
	O1        O1        O1         60.000   49_445 1_555 145_545
	O1        O1        O1         90.000   49_445 1_555  49_455
	O1        O1        O1         90.000   49_445 1_555  49_545
	O1        O1        O1         120.000  49_445 1_555 145_554
	O1        O1        O1         120.000  49_445 1_555  97_554
	O1        O1        Mg1        90.000   49_445 1_555  49_555
	O1        O1        Mg1        90.000   49_445 1_555  49_556
	O1        O1        Mg1        45.000   49_445 1_555  97_555
	O1        O1        Mg1        135.000  49_445 1_555  97_565
	O1        O1        Mg1        45.000   49_445 1_555 145_555
	O1        O1        Mg1        135.000  49_445 1_555 145_655
#######	End powder crystal structure	#######


#######	Begin powder diffraction data	#######
data_Rh_Bi_postheat_minigrid_12_017_Rh_3.7513_MgO_4.0840.xy_0
_pd_block_id	Rh_Bi_postheat_minigrid_12_017_Rh_3.7513_MgO_4.0840.xy_0
_pd_calc_method	Rietveld
_diffrn_radiation_probe	x-ray
_diffrn_radiation_wavelength	0.406626000
_refine_ls_goodness_of_fit_all	1.54167
_pd_proc_ls_prof_R_factor	0.01332
_pd_proc_ls_prof_wR_factor	0.02818
_pd_proc_ls_prof_wR_expected	0.01828
loop_
	_pd_phase_id
	_pd_phase_block_id
	_pd_phase_mass_%
1	BiRh3_0	16.6(5)
2	Bi_V_0	3.5(2)
3	Rh_0	26.9(7)
4	MgO_0	53.1(12)
loop_
	_refln_index_h
	_refln_index_k
	_refln_index_l
	_pd_refln_phase_id
	_refln_d_spacing
	_refln_F_squared_calc
	_refln_F_squared_meas
   1    0    0 1    3.922411     0.062880     0.061123
   1    1    0 1    2.773563     0.116661     0.115764
   1    1    1 1    2.264605     1.949081     1.966995
   2    0    0 1    1.961205     1.323837     1.277653
   2    1    0 1    1.754155     0.200944     0.200560
   2    1    1 1    1.601317     0.192732     0.192931
   2    2    0 1    1.386782     1.963642     2.010020
   2    2    1 1    1.307470     0.171549     0.168261
   2    2    2 1    1.132302     1.059937     1.072746
   3    0    0 1    1.307470     0.042887     0.042065
   3    1    0 1    1.240375     0.165326     0.167543
   3    1    1 1    1.182651     3.333369     3.371017
   3    2    0 1    1.087881     0.148558     0.148830
   1    1    0 2    2.580203     0.637082     0.646872
   2    0    0 2    1.824479     0.263820     0.256966
   2    1    1 2    1.489681     0.913192     0.900912
   2    2    0 2    1.290101     0.404757     0.405233
   3    1    0 2    1.153902     0.729164     0.719210
   1    1    1 3    2.156504     2.883459     2.764850
   2    0    0 3    1.867587     1.923662     2.160432
   2    2    0 3    1.320583     2.722979     2.538390
   2    2    2 3    1.078252     1.438791     1.436899
   3    1    1 3    1.126197     4.541340     4.766576
   1    1    1 4    2.346294     0.095784     0.095259
   2    0    0 4    2.031950     1.218724     1.218822
   2    2    0 4    1.436806     1.546609     1.546631
   2    2    2 4    1.173147     0.723991     0.726233
   3    1    1 4    1.225312     0.288019     0.288095
loop_
	_pd_meas_2theta_scan
	_pd_proc_intensity_total
	_pd_proc_ls_weight
	_pd_calc_intensity_total
	_pd_proc_intensity_bkg_calc
   4.004744  2229.836914     0.000448  2233.790957     0.000000 
   4.024897  2229.883789     0.000448  2233.608124     0.000000 
   4.045051  2230.505615     0.000448  2233.435265     0.000000 
   4.065204  2229.842041     0.000448  2233.272352     0.000000 
   4.085358  2230.793701     0.000448  2233.119355     0.000000 
   4.105511  2230.440186     0.000448  2232.976248     0.000000 
   4.125665  2229.523193     0.000449  2232.843000     0.000000 
   4.145818  2229.161621     0.000449  2232.719584     0.000000 
   4.165972  2226.701660     0.000449  2232.605970     0.000000 
   4.186125  2232.390625     0.000448  2232.502131     0.000000 
   4.206279  2231.649658     0.000448  2232.408037     0.000000 
   4.226433  2229.854736     0.000448  2232.323660     0.000000 
   4.246586  2229.215576     0.000449  2232.248970     0.000000 
   4.266740  2227.441406     0.000449  2232.183940     0.000000 
   4.286893  2230.167236     0.000448  2232.128539     0.000000 
   4.307047  2228.500977     0.000449  2232.082739     0.000000 
   4.327200  2226.945068     0.000449  2232.046511     0.000000 
   4.347354  2228.435791     0.000449  2232.019826     0.000000 
   4.367507  2230.507812     0.000448  2232.002655     0.000000 
   4.387661  2232.730957     0.000448  2231.994968     0.000000 
   4.407814  2240.743164     0.000446  2231.996736     0.000000 
   4.427968  2245.822754     0.000445  2232.007931     0.000000 
   4.448121  2250.459961     0.000444  2232.028522     0.000000 
   4.468275  2242.834229     0.000446  2232.058480     0.000000 
   4.488428  2240.891602     0.000446  2232.097776     0.000000 
   4.508582  2238.048584     0.000447  2232.146381     0.000000 
   4.528735  2237.675293     0.000447  2232.204264     0.000000 
   4.548889  2234.808838     0.000447  2232.271397     0.000000 
   4.569042  2234.071289     0.000448  2232.347749     0.000000 
   4.589196  2231.337646     0.000448  2232.433292     0.000000 
   4.609350  2230.673340     0.000448  2232.527995     0.000000 
   4.629503  2229.235352     0.000449  2232.631829     0.000000 
   4.649657  2229.811035     0.000448  2232.744764     0.000000 
   4.669810  2228.967773     0.000449  2232.866770     0.000000 
   4.689964  2226.219482     0.000449  2232.997818     0.000000 
   4.710117  2229.300537     0.000449  2233.137877     0.000000 
   4.730271  2228.619873     0.000449  2233.286917     0.000000 
   4.750424  2231.847900     0.000448  2233.444909     0.000000 
   4.770578  2231.676758     0.000448  2233.611822     0.000000 
   4.790731  2230.933594     0.000448  2233.787627     0.000000 
   4.810885  2231.430176     0.000448  2233.972294     0.000000 
   4.831038  2229.586670     0.000449  2234.165792     0.000000 
   4.851192  2228.735352     0.000449  2234.368090     0.000000 
   4.871345  2226.856689     0.000449  2234.579160     0.000000 
   4.891499  2226.928223     0.000449  2234.798971     0.000000 
   4.911652  2228.499756     0.000449  2235.027491     0.000000 
   4.931806  2230.292725     0.000448  2235.264693     0.000000 
   4.951959  2225.296631     0.000449  2235.510543     0.000000 
   4.972113  2227.475098     0.000449  2236.004983     0.000000 
   4.992267  2227.974854     0.000449  2236.278317     0.000000 
   5.012420  2232.638672     0.000448  2236.560883     0.000000 
   5.032574  2239.790039     0.000446  2236.852712     0.000000 
   5.052727  2247.158203     0.000445  2237.153840     0.000000 
   5.072881  2249.068115     0.000445  2237.464311     0.000000 
   5.093034  2242.437012     0.000446  2237.784178     0.000000 
   5.113188  2237.768066     0.000447  2238.113506     0.000000 
   5.133341  2238.409180     0.000447  2238.452369     0.000000 
   5.153495  2236.184570     0.000447  2238.800857     0.000000 
   5.173648  2237.015869     0.000447  2239.159074     0.000000 
   5.193802  2235.133789     0.000447  2239.527143     0.000000 
   5.213955  2233.469238     0.000448  2239.905210     0.000000 
   5.234109  2236.138184     0.000447  2240.293444     0.000000 
   5.254262  2230.309326     0.000448  2240.692044     0.000000 
   5.274416  2236.535889     0.000447  2241.101245     0.000000 
   5.294569  2249.042480     0.000445  2241.521325     0.000000 
   5.314723  2261.207031     0.000442  2241.952608     0.000000 
   5.334877  2264.051025     0.000442  2242.395480     0.000000 
   5.355030  2260.391357     0.000442  2242.850398     0.000000 
   5.375184  2259.141113     0.000443  2243.317909     0.000000 
   5.395337  2257.745850     0.000443  2243.798664     0.000000 
   5.415491  2257.780762     0.000443  2244.293450     0.000000 
   5.435644  2256.084473     0.000443  2244.803213     0.000000 
   5.455798  2256.817383     0.000443  2245.329108     0.000000 
   5.475951  2262.843262     0.000442  2245.872547     0.000000 
   5.496105  2268.146973     0.000441  2246.435272     0.000000 
   5.516258  2268.302979     0.000441  2247.019447     0.000000 
   5.536412  2264.778809     0.000442  2247.627789     0.000000 
   5.556565  2260.450684     0.000442  2248.263753     0.000000 
   5.576719  2255.111572     0.000443  2248.931735     0.000000 
   5.596872  2254.815674     0.000443  2249.637448     0.000000 
   5.617026  2253.205322     0.000444  2250.388401     0.000000 
   5.637179  2252.663330     0.000444  2251.194609     0.000000 
   5.657333  2250.630615     0.000444  2252.069663     0.000000 
   5.677486  2249.947998     0.000444  2253.032358     0.000000 
   5.697640  2253.374512     0.000444  2254.109258     0.000000 
   5.717794  2252.253906     0.000444  2255.338845     0.000000 
   5.737947  2251.793213     0.000444  2256.778480     0.000000 
   5.758101  2252.395264     0.000444  2258.516520     0.000000 
   5.778254  2251.456055     0.000444  2260.694492     0.000000 
   5.798408  2254.372070     0.000444  2263.551931     0.000000 
   5.818561  2255.993896     0.000443  2267.558580     0.000000 
   5.838715  2264.555908     0.000442  2274.122640     0.000000 
   5.858868  2280.252197     0.000439  2289.363184     0.000000 
   5.879022  2324.741943     0.000430  2334.998538     0.000000 
   5.899175  2425.894775     0.000412  2451.979673     0.000000 
   5.919329  2596.601807     0.000385  2647.458745     0.000000 
   5.939482  2630.838867     0.000380  2793.322804     0.000000 
   5.959636  2574.752686     0.000388  2705.426542     0.000000 
   5.979789  2476.198242     0.000404  2504.538755     0.000000 
   5.999943  2391.498047     0.000418  2363.008005     0.000000 
   6.020096  2308.754395     0.000433  2302.645790     0.000000 
   6.040250  2294.788818     0.000436  2283.242174     0.000000 
   6.060403  2285.919678     0.000437  2276.509343     0.000000 
   6.080557  2284.279541     0.000438  2273.274820     0.000000 
   6.100711  2284.423340     0.000438  2271.425051     0.000000 
   6.120864  2285.279541     0.000438  2270.353750     0.000000 
   6.141018  2281.881104     0.000438  2269.777450     0.000000 
   6.161171  2281.989746     0.000438  2269.532696     0.000000 
   6.181325  2278.919922     0.000439  2269.518726     0.000000 
   6.201478  2276.574951     0.000439  2269.670790     0.000000 
   6.221632  2275.477539     0.000439  2269.945812     0.000000 
   6.241785  2275.601074     0.000439  2270.314267     0.000000 
   6.261939  2276.229248     0.000439  2270.755389     0.000000 
   6.282092  2278.224609     0.000439  2271.254231     0.000000 
   6.302246  2277.458252     0.000439  2271.799821     0.000000 
   6.322399  2277.820068     0.000439  2272.383960     0.000000 
   6.342553  2274.931396     0.000440  2273.000418     0.000000 
   6.362706  2275.481445     0.000439  2273.644377     0.000000 
   6.382860  2276.602539     0.000439  2274.312086     0.000000 
   6.403013  2277.776367     0.000439  2275.000580     0.000000 
   6.423167  2280.364990     0.000439  2275.707489     0.000000 
   6.443320  2282.548340     0.000438  2276.430896     0.000000 
   6.463474  2283.240967     0.000438  2277.169241     0.000000 
   6.483628  2286.040527     0.000437  2277.921239     0.000000 
   6.503781  2284.771240     0.000438  2278.685825     0.000000 
   6.523935  2285.858643     0.000437  2279.462107     0.000000 
   6.544088  2284.489258     0.000438  2280.249335     0.000000 
   6.564242  2284.085205     0.000438  2281.046873     0.000000 
   6.584395  2284.986816     0.000438  2281.854176     0.000000 
   6.604549  2283.997559     0.000438  2282.670778     0.000000 
   6.624702  2286.006592     0.000437  2283.496272     0.000000 
   6.644856  2285.986328     0.000437  2284.330306     0.000000 
   6.665009  2287.468262     0.000437  2285.172572     0.000000 
   6.685163  2286.966797     0.000437  2286.022798     0.000000 
   6.705316  2289.137939     0.000437  2286.880744     0.000000 
   6.725470  2290.038330     0.000437  2287.746196     0.000000 
   6.745623  2294.489990     0.000436  2288.618961     0.000000 
   6.765777  2296.077881     0.000436  2289.498869     0.000000 
   6.785930  2297.198975     0.000435  2290.385762     0.000000 
   6.806084  2295.431152     0.000436  2291.279499     0.000000 
   6.826237  2295.243652     0.000436  2292.179952     0.000000 
   6.846391  2295.562744     0.000436  2293.087001     0.000000 
   6.866545  2295.982422     0.000436  2294.000537     0.000000 
   6.886698  2296.649414     0.000435  2294.920460     0.000000 
   6.906852  2297.643555     0.000435  2295.846675     0.000000 
   6.927005  2298.694092     0.000435  2296.546076     0.000000 
   6.947159  2300.054199     0.000435  2297.493860     0.000000 
   6.967312  2301.126953     0.000435  2298.447150     0.000000 
   6.987466  2302.607422     0.000434  2299.405914     0.000000 
   7.007619  2305.448242     0.000434  2300.370121     0.000000 
   7.027773  2306.153320     0.000434  2301.339738     0.000000 
   7.047926  2308.118896     0.000433  2302.314735     0.000000 
   7.068080  2306.466309     0.000434  2303.295078     0.000000 
   7.088233  2307.563477     0.000433  2304.280737     0.000000 
   7.108387  2308.964600     0.000433  2305.271679     0.000000 
   7.128540  2309.743164     0.000433  2306.267874     0.000000 
   7.148694  2310.286377     0.000433  2307.269288     0.000000 
   7.168847  2310.719727     0.000433  2308.275890     0.000000 
   7.189001  2312.105225     0.000433  2309.483189     0.000000 
   7.209154  2313.069824     0.000432  2310.506696     0.000000 
   7.229308  2314.150146     0.000432  2311.535639     0.000000 
   7.249462  2315.784668     0.000432  2312.570009     0.000000 
   7.269615  2317.711426     0.000431  2313.609801     0.000000 
   7.289769  2317.801758     0.000431  2314.655013     0.000000 
   7.309922  2318.949707     0.000431  2315.705642     0.000000 
   7.330076  2318.123047     0.000431  2316.761692     0.000000 
   7.350229  2321.041260     0.000431  2317.823169     0.000000 
   7.370383  2323.564697     0.000430  2318.890081     0.000000 
   7.390536  2325.478027     0.000430  2319.962442     0.000000 
   7.410690  2327.473145     0.000430  2321.040270     0.000000 
   7.430843  2327.365234     0.000430  2322.123588     0.000000 
   7.450997  2327.975586     0.000430  2323.212425     0.000000 
   7.471150  2328.174805     0.000430  2324.306817     0.000000 
   7.491304  2327.990967     0.000430  2325.406807     0.000000 
   7.511457  2329.522217     0.000429  2326.512446     0.000000 
   7.531611  2331.637939     0.000429  2327.623796     0.000000 
   7.551764  2332.450928     0.000429  2328.740928     0.000000 
   7.571918  2334.566895     0.000428  2329.863928     0.000000 
   7.592072  2335.056641     0.000428  2330.992894     0.000000 
   7.612225  2338.019531     0.000428  2332.127942     0.000000 
   7.632379  2341.995117     0.000427  2333.269208     0.000000 
   7.652532  2344.668701     0.000426  2334.416848     0.000000 
   7.672686  2347.231689     0.000426  2335.571047     0.000000 
   7.692839  2345.523682     0.000426  2336.732018     0.000000 
   7.712993  2345.675537     0.000426  2337.900012     0.000000 
   7.733146  2345.683350     0.000426  2339.075321     0.000000 
   7.753300  2345.059082     0.000426  2340.258287     0.000000 
   7.773453  2344.917236     0.000426  2341.449313     0.000000 
   7.793607  2346.359863     0.000426  2342.648875     0.000000 
   7.813760  2349.099121     0.000426  2344.742307     0.000000 
   7.833914  2352.334473     0.000425  2345.990532     0.000000 
   7.854067  2350.214111     0.000425  2347.250840     0.000000 
   7.874221  2349.354980     0.000426  2348.524289     0.000000 
   7.894374  2349.275635     0.000426  2349.812137     0.000000 
   7.914528  2352.916260     0.000425  2351.115896     0.000000 
   7.934681  2358.040771     0.000424  2352.437390     0.000000 
   7.954835  2359.724609     0.000424  2353.778844     0.000000 
   7.974989  2360.521973     0.000424  2355.142987     0.000000 
   7.995142  2360.492920     0.000424  2356.533199     0.000000 
   8.015296  2361.641357     0.000423  2357.953712     0.000000 
   8.035449  2363.792480     0.000423  2359.409877     0.000000 
   8.055603  2365.180420     0.000423  2360.908563     0.000000 
   8.075756  2369.509766     0.000422  2362.458673     0.000000 
   8.095910  2372.483154     0.000421  2364.071906     0.000000 
   8.116063  2372.599609     0.000421  2365.763940     0.000000 
   8.136217  2371.739746     0.000422  2367.556139     0.000000 
   8.156370  2372.604492     0.000421  2369.478221     0.000000 
   8.176524  2375.648193     0.000421  2371.572483     0.000000 
   8.196677  2378.220215     0.000420  2373.900724     0.000000 
   8.216831  2378.068359     0.000421  2376.556136     0.000000 
   8.236984  2379.997070     0.000420  2379.686827     0.000000 
   8.257138  2382.588135     0.000420  2383.563003     0.000000 
   8.277291  2386.597412     0.000419  2388.851569     0.000000 
   8.297445  2390.383789     0.000418  2397.676601     0.000000 
   8.317598  2403.218506     0.000416  2416.386029     0.000000 
   8.337752  2439.630127     0.000410  2458.630723     0.000000 
   8.357906  2533.189941     0.000395  2540.476350     0.000000 
   8.378059  2640.231445     0.000379  2659.139129     0.000000 
   8.398213  2734.850586     0.000366  2762.790225     0.000000 
   8.418366  2728.204346     0.000367  2759.403534     0.000000 
   8.438520  2636.074219     0.000379  2654.475537     0.000000 
   8.458673  2510.549072     0.000398  2540.502119     0.000000 
   8.478827  2437.376465     0.000410  2464.859628     0.000000 
   8.498980  2410.428955     0.000415  2427.932049     0.000000 
   8.519134  2403.291016     0.000416  2413.327425     0.000000 
   8.539287  2402.949219     0.000416  2407.955361     0.000000 
   8.559441  2402.145752     0.000416  2405.910653     0.000000 
   8.579594  2403.175049     0.000416  2405.252417     0.000000 
   8.599748  2406.197266     0.000416  2405.375131     0.000000 
   8.619901  2408.910156     0.000415  2406.036377     0.000000 
   8.640055  2410.941650     0.000415  2407.111294     0.000000 
   8.660208  2411.585693     0.000415  2408.531908     0.000000 
   8.680362  2411.774414     0.000415  2410.266554     0.000000 
   8.700515  2415.044922     0.000414  2412.310661     0.000000 
   8.720669  2416.542480     0.000414  2414.683218     0.000000 
   8.740823  2418.946289     0.000413  2417.427278     0.000000 
   8.760976  2421.357910     0.000413  2420.614477     0.000000 
   8.781130  2421.642334     0.000413  2424.353391     0.000000 
   8.801283  2424.224121     0.000413  2428.805065     0.000000 
   8.821437  2428.512939     0.000412  2434.209108     0.000000 
   8.841590  2433.905029     0.000411  2440.928173     0.000000 
   8.861744  2441.124268     0.000410  2449.546644     0.000000 
   8.881897  2450.058594     0.000408  2461.038801     0.000000 
   8.902051  2467.122559     0.000405  2477.729260     0.000000 
   8.922204  2498.130127     0.000400  2506.811298     0.000000 
   8.942358  2566.482910     0.000390  2570.839594     0.000000 
   8.962511  2734.475830     0.000366  2723.592644     0.000000 
   8.982665  3114.565186     0.000321  3045.071296     0.000000 
   9.002818  3668.394775     0.000273  3556.388251     0.000000 
   9.022972  4171.015137     0.000240  4100.415983     0.000000 
   9.043125  4296.050293     0.000233  4273.918555     0.000000 
   9.063279  3986.244873     0.000251  3891.937054     0.000000 
   9.083432  3415.997314     0.000293  3327.983071     0.000000 
   9.103586  2934.618896     0.000341  2894.836062     0.000000 
   9.123740  2662.772461     0.000376  2657.276160     0.000000 
   9.143893  2547.173340     0.000393  2553.503857     0.000000 
   9.164047  2503.067627     0.000400  2511.333583     0.000000 
   9.184200  2483.972900     0.000403  2491.684469     0.000000 
   9.204354  2473.624023     0.000404  2480.333033     0.000000 
   9.224507  2467.336182     0.000405  2472.913582     0.000000 
   9.244661  2462.567627     0.000406  2467.868348     0.000000 
   9.264814  2463.274902     0.000406  2464.421659     0.000000 
   9.284968  2464.470703     0.000406  2462.101951     0.000000 
   9.305121  2464.107910     0.000406  2460.600207     0.000000 
   9.325275  2463.009033     0.000406  2459.707120     0.000000 
   9.345428  2462.339355     0.000406  2459.277387     0.000000 
   9.365582  2465.051025     0.000406  2459.207694     0.000000 
   9.385735  2468.103516     0.000405  2459.423174     0.000000 
   9.405889  2469.085205     0.000405  2459.868695     0.000000 
   9.426042  2469.573486     0.000405  2462.883467     0.000000 
   9.446196  2470.862549     0.000405  2463.746023     0.000000 
   9.466349  2474.216797     0.000404  2464.746061     0.000000 
   9.486503  2475.581787     0.000404  2465.865857     0.000000 
   9.506657  2475.755615     0.000404  2467.092028     0.000000 
   9.526810  2475.541016     0.000404  2468.414610     0.000000 
   9.546964  2474.802002     0.000404  2469.826415     0.000000 
   9.567117  2474.708008     0.000404  2471.322528     0.000000 
   9.587271  2474.932617     0.000404  2472.900000     0.000000 
   9.607424  2476.222900     0.000404  2474.557687     0.000000 
   9.627578  2480.200195     0.000403  2476.296117     0.000000 
   9.647731  2482.115967     0.000403  2477.928709     0.000000 
   9.667885  2482.695068     0.000403  2479.842988     0.000000 
   9.688038  2483.874512     0.000403  2481.849760     0.000000 
   9.708192  2482.889893     0.000403  2483.957200     0.000000 
   9.728345  2483.645264     0.000403  2486.176315     0.000000 
   9.748499  2484.209473     0.000403  2488.521800     0.000000 
   9.768652  2488.724854     0.000402  2491.013563     0.000000 
   9.788806  2493.930664     0.000401  2493.680110     0.000000 
   9.808959  2496.293457     0.000401  2496.572733     0.000000 
   9.829113  2500.048828     0.000400  2499.841401     0.000000 
   9.849266  2501.867188     0.000400  2504.035651     0.000000 
   9.869420  2508.347656     0.000399  2510.733600     0.000000 
   9.889574  2519.573730     0.000397  2522.545990     0.000000 
   9.909727  2532.264404     0.000395  2540.286942     0.000000 
   9.929881  2540.874268     0.000394  2558.215975     0.000000 
   9.950034  2544.198486     0.000393  2564.813166     0.000000 
   9.970188  2542.260986     0.000393  2558.248185     0.000000 
   9.990341  2538.784912     0.000394  2549.908842     0.000000 
  10.010495  2535.140381     0.000394  2547.560985     0.000000 
  10.030648  2535.018311     0.000394  2551.780226     0.000000 
  10.050802  2538.084961     0.000394  2560.412257     0.000000 
  10.070955  2544.130371     0.000393  2572.179452     0.000000 
  10.091109  2554.923584     0.000391  2587.202518     0.000000 
  10.111262  2565.910645     0.000390  2606.526702     0.000000 
  10.131416  2584.391602     0.000387  2632.120464     0.000000 
  10.151569  2609.759277     0.000383  2668.003348     0.000000 
  10.171723  2652.027100     0.000377  2724.665667     0.000000 
  10.191876  2729.890869     0.000366  2831.918065     0.000000 
  10.212030  2918.604980     0.000343  3061.470564     0.000000 
  10.232184  3413.545166     0.000293  3535.057638     0.000000 
  10.252337  4302.184082     0.000232  4359.786417     0.000000 
  10.272491  5584.967773     0.000179  5463.216890     0.000000 
  10.292644  6532.780762     0.000153  6371.209452     0.000000 
  10.312798  6522.363770     0.000153  6317.494488     0.000000 
  10.332951  5478.650391     0.000183  5361.333517     0.000000 
  10.353105  4254.551270     0.000235  4278.478736     0.000000 
  10.373258  3426.820557     0.000292  3495.046763     0.000000 
  10.393412  3024.771240     0.000331  3057.101510     0.000000 
  10.413565  2855.565674     0.000350  2850.348284     0.000000 
  10.433719  2778.911865     0.000360  2756.804733     0.000000 
  10.453872  2734.064697     0.000366  2709.911949     0.000000 
  10.474026  2712.641357     0.000369  2682.752859     0.000000 
  10.494179  2701.714844     0.000370  2665.988415     0.000000 
  10.514333  2692.705322     0.000371  2657.257346     0.000000 
  10.534486  2687.983887     0.000372  2652.629209     0.000000 
  10.554640  2685.377930     0.000372  2652.427981     0.000000 
  10.574793  2691.462402     0.000372  2656.382602     0.000000 
  10.594947  2713.599609     0.000369  2664.679766     0.000000 
  10.615101  2753.399658     0.000363  2678.012098     0.000000 
  10.635254  2826.928223     0.000354  2697.847794     0.000000 
  10.655408  2910.408936     0.000344  2727.484433     0.000000 
  10.675561  3060.812500     0.000327  2775.939035     0.000000 
  10.695715  3214.986572     0.000311  2869.440918     0.000000 
  10.715868  3357.382324     0.000298  3074.111333     0.000000 
  10.736022  3642.445557     0.000275  3514.401493     0.000000 
  10.756175  4079.508301     0.000245  4336.484847     0.000000 
  10.776329  4994.321289     0.000200  5570.282144     0.000000 
  10.796482  6351.128418     0.000157  6933.426688     0.000000 
  10.816636  7224.723145     0.000138  7714.090933     0.000000 
  10.836789  7176.668945     0.000139  7269.784416     0.000000 
  10.856943  5923.072754     0.000169  5990.661144     0.000000 
  10.877096  4547.981934     0.000220  4670.926833     0.000000 
  10.897250  3445.549072     0.000290  3719.791589     0.000000 
  10.917403  2926.825684     0.000342  3180.095019     0.000000 
  10.937557  2704.776123     0.000370  2921.444831     0.000000 
  10.957710  2655.143311     0.000377  2804.774987     0.000000 
  10.977864  2634.674072     0.000380  2747.166842     0.000000 
  10.998018  2629.018311     0.000380  2713.158640     0.000000 
  11.018171  2624.235352     0.000381  2690.176129     0.000000 
  11.038325  2620.309814     0.000382  2673.667200     0.000000 
  11.058478  2617.482422     0.000382  2661.595798     0.000000 
  11.078632  2613.582275     0.000383  2652.754333     0.000000 
  11.098785  2612.775635     0.000383  2646.369675     0.000000 
  11.118939  2610.294922     0.000383  2641.924367     0.000000 
  11.139092  2612.306641     0.000383  2639.073380     0.000000 
  11.159246  2614.170898     0.000383  2637.595792     0.000000 
  11.179399  2617.114502     0.000382  2637.367165     0.000000 
  11.199553  2621.023926     0.000382  2638.346749     0.000000 
  11.219706  2627.100830     0.000381  2640.576256     0.000000 
  11.239860  2633.277100     0.000380  2644.190503     0.000000 
  11.260013  2637.931641     0.000379  2649.444097     0.000000 
  11.280167  2645.244629     0.000378  2656.763376     0.000000 
  11.300320  2656.624268     0.000376  2668.619959     0.000000 
  11.320474  2678.108643     0.000373  2682.854469     0.000000 
  11.340627  2704.752441     0.000370  2704.611871     0.000000 
  11.360781  2759.469971     0.000362  2746.171813     0.000000 
  11.380935  2875.022705     0.000348  2850.039187     0.000000 
  11.401088  3157.946289     0.000317  3127.146232     0.000000 
  11.421242  3796.513428     0.000263  3759.800948     0.000000 
  11.441395  4793.529297     0.000209  4856.375999     0.000000 
  11.461549  6137.352539     0.000163  6169.008427     0.000000 
  11.481702  6980.479004     0.000143  6956.422251     0.000000 
  11.501856  6581.494629     0.000152  6536.543500     0.000000 
  11.522009  5282.813477     0.000189  5300.367710     0.000000 
  11.542163  4097.151367     0.000244  4084.710329     0.000000 
  11.562316  3291.828369     0.000304  3303.985930     0.000000 
  11.582470  2937.574707     0.000340  2935.428175     0.000000 
  11.602623  2805.051514     0.000356  2795.847722     0.000000 
  11.622777  2746.145752     0.000364  2746.385617     0.000000 
  11.642930  2721.180176     0.000367  2724.288223     0.000000 
  11.663084  2706.202148     0.000370  2715.302995     0.000000 
  11.683237  2701.774170     0.000370  2712.445487     0.000000 
  11.703391  2703.213623     0.000370  2714.559166     0.000000 
  11.723544  2713.160400     0.000369  2721.717539     0.000000 
  11.743698  2727.400391     0.000367  2735.166717     0.000000 
  11.763852  2756.035645     0.000363  2758.776691     0.000000 
  11.784005  2804.107178     0.000357  2803.481934     0.000000 
  11.804159  2903.064941     0.000344  2895.671335     0.000000 
  11.824312  3111.916504     0.000321  3082.764646     0.000000 
  11.844466  3382.938477     0.000296  3416.512631     0.000000 
  11.864619  3793.873535     0.000264  3898.076596     0.000000 
  11.884773  4019.038330     0.000249  4386.396538     0.000000 
  11.904926  4144.373047     0.000241  4541.080779     0.000000 
  11.925080  4010.706787     0.000249  4205.015274     0.000000 
  11.945233  3727.690674     0.000268  3689.847709     0.000000 
  11.965387  3202.229004     0.000312  3263.628396     0.000000 
  11.985540  2990.668213     0.000334  2995.725944     0.000000 
  12.005694  2852.448730     0.000351  2855.073433     0.000000 
  12.025847  2783.739746     0.000359  2787.237082     0.000000 
  12.046001  2750.258545     0.000364  2753.079688     0.000000 
  12.066154  2729.354492     0.000366  2733.511064     0.000000 
  12.086308  2717.959961     0.000368  2721.036074     0.000000 
  12.106461  2706.556885     0.000369  2712.777489     0.000000 
  12.126615  2701.359863     0.000370  2707.422861     0.000000 
  12.146769  2699.328613     0.000370  2704.246434     0.000000 
  12.166922  2701.093018     0.000370  2702.816723     0.000000 
  12.187076  2702.443359     0.000370  2702.887036     0.000000 
  12.207229  2706.498291     0.000369  2704.349201     0.000000 
  12.227383  2711.741699     0.000369  2704.879914     0.000000 
  12.247536  2720.970215     0.000368  2709.338616     0.000000 
  12.267690  2733.233887     0.000366  2715.594473     0.000000 
  12.287843  2756.517090     0.000363  2724.110792     0.000000 
  12.307997  2780.153320     0.000360  2735.637032     0.000000 
  12.328150  2813.829102     0.000355  2751.394047     0.000000 
  12.348304  2869.099121     0.000349  2773.493756     0.000000 
  12.368457  2960.922119     0.000338  2806.355287     0.000000 
  12.388611  3106.298584     0.000322  2862.266766     0.000000 
  12.408764  3342.978516     0.000299  2978.134320     0.000000 
  12.428918  3810.060059     0.000262  3241.475169     0.000000 
  12.449071  4626.682129     0.000216  3777.901973     0.000000 
  12.469225  5502.729980     0.000182  4620.311010     0.000000 
  12.489379  6245.500977     0.000160  5439.735450     0.000000 
  12.509532  6138.360352     0.000163  5452.823553     0.000000 
  12.529686  5261.024414     0.000190  4644.486054     0.000000 
  12.549839  4165.687500     0.000240  3800.083581     0.000000 
  12.569993  3435.795654     0.000291  3260.078685     0.000000 
  12.590146  3000.385010     0.000333  2995.986089     0.000000 
  12.610300  2832.164795     0.000353  2882.710343     0.000000 
  12.630453  2772.549316     0.000361  2832.465757     0.000000 
  12.650607  2751.142334     0.000363  2809.139194     0.000000 
  12.670760  2743.052002     0.000365  2802.375073     0.000000 
  12.690914  2742.864258     0.000365  2810.049476     0.000000 
  12.711067  2752.239990     0.000363  2830.091507     0.000000 
  12.731221  2772.664062     0.000361  2863.000147     0.000000 
  12.751374  2796.815430     0.000358  2901.699321     0.000000 
  12.771528  2821.313965     0.000354  2936.100922     0.000000 
  12.791681  2833.574463     0.000353  2952.879465     0.000000 
  12.811835  2830.491211     0.000353  2942.790019     0.000000 
  12.831988  2808.404785     0.000356  2909.401358     0.000000 
  12.852142  2783.681152     0.000359  2865.083507     0.000000 
  12.872296  2757.831543     0.000363  2821.266530     0.000000 
  12.892449  2741.160156     0.000365  2784.815296     0.000000 
  12.912603  2733.286865     0.000366  2758.255673     0.000000 
  12.932756  2726.936279     0.000367  2740.994894     0.000000 
  12.952910  2726.822510     0.000367  2730.852351     0.000000 
  12.973063  2722.958496     0.000367  2725.397365     0.000000 
  12.993217  2725.635498     0.000367  2722.707100     0.000000 
  13.013370  2723.673096     0.000367  2721.553569     0.000000 
  13.033524  2723.068359     0.000367  2721.270576     0.000000 
  13.053677  2720.372559     0.000368  2721.543592     0.000000 
  13.073831  2719.434814     0.000368  2722.246668     0.000000 
  13.093984  2720.430420     0.000368  2723.351450     0.000000 
  13.114138  2721.367676     0.000367  2724.890907     0.000000 
  13.134291  2721.308838     0.000367  2726.960672     0.000000 
  13.154445  2722.303223     0.000367  2729.768656     0.000000 
  13.174598  2724.615234     0.000367  2733.988259     0.000000 
  13.194752  2730.653076     0.000366  2740.680627     0.000000 
  13.214905  2743.141113     0.000365  2752.717559     0.000000 
  13.235059  2768.740723     0.000361  2775.464857     0.000000 
  13.255213  2812.607910     0.000356  2814.759874     0.000000 
  13.275366  2868.990723     0.000349  2871.248499     0.000000 
  13.295520  2922.935303     0.000342  2929.358634     0.000000 
  13.315673  2938.232666     0.000340  2947.366619     0.000000 
  13.335827  2906.049805     0.000344  2908.496580     0.000000 
  13.355980  2848.048828     0.000351  2849.478577     0.000000 
  13.376134  2788.663574     0.000359  2801.446080     0.000000 
  13.396287  2758.955566     0.000362  2771.504547     0.000000 
  13.416441  2744.643799     0.000364  2755.856327     0.000000 
  13.436594  2736.584473     0.000365  2748.457946     0.000000 
  13.456748  2734.263672     0.000366  2744.986368     0.000000 
  13.476901  2733.609619     0.000366  2743.288656     0.000000 
  13.497055  2735.659424     0.000366  2742.481952     0.000000 
  13.517208  2736.363770     0.000365  2742.204894     0.000000 
  13.537362  2737.783203     0.000365  2742.281368     0.000000 
  13.557515  2738.352051     0.000365  2742.607787     0.000000 
  13.577669  2738.011475     0.000365  2743.116768     0.000000 
  13.597822  2737.947510     0.000365  2743.762156     0.000000 
  13.617976  2739.316650     0.000365  2744.511659     0.000000 
  13.638130  2740.961914     0.000365  2745.342074     0.000000 
  13.658283  2742.801758     0.000365  2746.236391     0.000000 
  13.678437  2744.150391     0.000364  2747.181914     0.000000 
  13.698590  2744.445312     0.000364  2748.169017     0.000000 
  13.718744  2745.209473     0.000364  2747.480257     0.000000 
  13.738897  2745.187256     0.000364  2748.585055     0.000000 
  13.759051  2745.248535     0.000364  2749.711110     0.000000 
  13.779204  2746.171387     0.000364  2750.854985     0.000000 
  13.799358  2747.472900     0.000364  2752.013954     0.000000 
  13.819511  2749.111084     0.000364  2753.185847     0.000000 
  13.839665  2750.728027     0.000364  2754.368941     0.000000 
  13.859818  2750.801758     0.000364  2755.561852     0.000000 
  13.879972  2750.807617     0.000364  2756.763503     0.000000 
  13.900125  2750.206787     0.000364  2757.973059     0.000000 
  13.920279  2752.364990     0.000363  2759.189897     0.000000 
  13.940432  2755.279053     0.000363  2760.413583     0.000000 
  13.960586  2756.726807     0.000363  2761.643851     0.000000 
  13.980739  2758.068848     0.000363  2762.880604     0.000000 
  14.000893  2759.143311     0.000362  2764.123897     0.000000 
  14.021047  2759.275635     0.000362  2765.373951     0.000000 
  14.041200  2759.685303     0.000362  2766.631164     0.000000 
  14.061354  2761.489990     0.000362  2767.896123     0.000000 
  14.081507  2761.263916     0.000362  2769.169640     0.000000 
  14.101661  2759.539795     0.000362  2770.452786     0.000000 
  14.121814  2760.007080     0.000362  2771.746940     0.000000 
  14.141968  2763.104980     0.000362  2773.053869     0.000000 
  14.162121  2768.120117     0.000361  2774.375822     0.000000 
  14.182275  2769.088135     0.000361  2775.715660     0.000000 
  14.202428  2770.637939     0.000361  2777.077046     0.000000 
  14.222582  2775.120361     0.000360  2778.464690     0.000000 
  14.242735  2779.592285     0.000360  2779.884729     0.000000 
  14.262889  2786.114502     0.000359  2781.345190     0.000000 
  14.283042  2792.131592     0.000358  2782.856749     0.000000 
  14.303196  2797.394531     0.000357  2784.433825     0.000000 
  14.323349  2800.767090     0.000357  2786.096224     0.000000 
  14.343503  2800.155273     0.000357  2787.871682     0.000000 
  14.363656  2800.254395     0.000357  2789.799926     0.000000 
  14.383810  2795.919922     0.000358  2791.939413     0.000000 
  14.403964  2794.625244     0.000358  2794.379627     0.000000 
  14.424117  2792.390137     0.000358  2797.268846     0.000000 
  14.444271  2799.191895     0.000357  2800.893968     0.000000 
  14.464424  2805.217773     0.000356  2805.916242     0.000000 
  14.484578  2818.914307     0.000355  2813.916063     0.000000 
  14.504731  2840.532959     0.000352  2828.123485     0.000000 
  14.524885  2872.933350     0.000348  2853.273812     0.000000 
  14.545038  2914.260498     0.000343  2892.863517     0.000000 
  14.565192  2953.838867     0.000339  2942.012083     0.000000 
  14.585345  2972.442383     0.000336  2974.504100     0.000000 
  14.605499  2952.097656     0.000339  2958.397435     0.000000 
  14.625652  2911.846680     0.000343  2912.855938     0.000000 
  14.645806  2868.122314     0.000349  2871.275835     0.000000 
  14.665959  2839.831787     0.000352  2843.995745     0.000000 
  14.686113  2821.530029     0.000354  2829.496627     0.000000 
  14.706266  2816.753174     0.000355  2822.314882     0.000000 
  14.726420  2814.631348     0.000355  2818.956501     0.000000 
  14.746573  2815.386475     0.000355  2817.230485     0.000000 
  14.766727  2815.508057     0.000355  2816.546383     0.000000 
  14.786881  2816.758301     0.000355  2816.384902     0.000000 
  14.807034  2818.363037     0.000355  2816.469017     0.000000 
  14.827188  2818.983154     0.000355  2816.891661     0.000000 
  14.847341  2819.908447     0.000355  2817.487170     0.000000 
  14.867495  2820.335449     0.000355  2818.211146     0.000000 
  14.887648  2820.713867     0.000355  2819.033036     0.000000 
  14.907802  2821.509033     0.000354  2819.931387     0.000000 
  14.927955  2823.916260     0.000354  2820.890906     0.000000 
  14.948109  2824.953125     0.000354  2821.900575     0.000000 
  14.968262  2825.399414     0.000354  2822.952429     0.000000 
  14.988416  2826.261719     0.000354  2824.040735     0.000000 
  15.008569  2831.871826     0.000353  2825.161445     0.000000 
  15.028723  2842.048340     0.000352  2826.311832     0.000000 
  15.048876  2849.673584     0.000351  2827.490195     0.000000 
  15.069030  2847.839600     0.000351  2828.695732     0.000000 
  15.089183  2849.372559     0.000351  2829.928431     0.000000 
  15.109337  2849.970947     0.000351  2831.189007     0.000000 
  15.129490  2850.279297     0.000351  2832.478898     0.000000 
  15.149644  2848.250000     0.000351  2833.800282     0.000000 
  15.169798  2845.865234     0.000351  2835.156141     0.000000 
  15.189951  2844.684814     0.000352  2836.550368     0.000000 
  15.210105  2845.416992     0.000351  2837.987909     0.000000 
  15.230258  2846.633545     0.000351  2839.525121     0.000000 
  15.250412  2846.599609     0.000351  2841.070185     0.000000 
  15.270565  2846.959473     0.000351  2842.682277     0.000000 
  15.290719  2850.782471     0.000351  2844.373691     0.000000 
  15.310872  2862.951904     0.000349  2846.160146     0.000000 
  15.331026  2871.331055     0.000348  2848.062721     0.000000 
  15.351179  2873.248291     0.000348  2850.111586     0.000000 
  15.371333  2872.085938     0.000348  2852.354142     0.000000 
  15.391486  2873.291748     0.000348  2854.872175     0.000000 
  15.411640  2873.702148     0.000348  2857.815753     0.000000 
  15.431793  2877.219971     0.000348  2861.463952     0.000000 
  15.451947  2877.544189     0.000348  2866.320486     0.000000 
  15.472100  2877.644531     0.000348  2873.240121     0.000000 
  15.492254  2880.020020     0.000347  2883.553997     0.000000 
  15.512408  2882.574707     0.000347  2899.121407     0.000000 
  15.532561  2890.943115     0.000346  2922.202093     0.000000 
  15.552715  2903.156738     0.000344  2955.046069     0.000000 
  15.572868  2925.178955     0.000342  3000.423358     0.000000 
  15.593022  2961.654785     0.000338  3055.670245     0.000000 
  15.613175  3020.056396     0.000331  3119.289121     0.000000 
  15.633329  3109.529785     0.000322  3185.294846     0.000000 
  15.653482  3207.155273     0.000312  3244.136774     0.000000 
  15.673636  3287.362549     0.000304  3283.583792     0.000000 
  15.693789  3304.939453     0.000303  3292.856763     0.000000 
  15.713943  3248.791260     0.000308  3269.360553     0.000000 
  15.734096  3153.844238     0.000317  3220.726813     0.000000 
  15.754250  3061.133545     0.000327  3159.274559     0.000000 
  15.774403  2994.598633     0.000334  3096.100014     0.000000 
  15.794557  2955.813232     0.000338  3038.900816     0.000000 
  15.814710  2935.594238     0.000341  2991.908636     0.000000 
  15.834864  2934.824219     0.000341  2956.409797     0.000000 
  15.855017  2935.859131     0.000341  2931.584051     0.000000 
  15.875171  2933.051514     0.000341  2915.445996     0.000000 
  15.895325  2923.934570     0.000342  2905.688043     0.000000 
  15.915478  2917.976318     0.000343  2900.247308     0.000000 
  15.935632  2913.996094     0.000343  2897.562076     0.000000 
  15.955785  2913.761475     0.000343  2896.594196     0.000000 
  15.975939  2914.349854     0.000343  2896.730008     0.000000 
  15.996092  2913.880127     0.000343  2897.652418     0.000000 
  16.016246  2915.725342     0.000343  2899.110948     0.000000 
  16.036399  2918.550049     0.000343  2901.361412     0.000000 
  16.056553  2921.651855     0.000342  2904.400586     0.000000 
  16.076706  2924.941406     0.000342  2908.583022     0.000000 
  16.096860  2932.905029     0.000341  2914.898040     0.000000 
  16.117013  2946.712646     0.000339  2926.058992     0.000000 
  16.137167  2969.034668     0.000337  2948.629753     0.000000 
  16.157320  3010.153564     0.000332  2996.523635     0.000000 
  16.177474  3093.524170     0.000323  3086.609904     0.000000 
  16.197627  3234.625732     0.000309  3236.686587     0.000000 
  16.217781  3450.806396     0.000290  3444.609406     0.000000 
  16.237934  3692.260498     0.000271  3671.614048     0.000000 
  16.258088  3847.314453     0.000260  3837.095537     0.000000 
  16.278242  3847.734131     0.000260  3851.749515     0.000000 
  16.298395  3697.941162     0.000270  3706.870860     0.000000 
  16.318549  3462.046631     0.000289  3485.645728     0.000000 
  16.338702  3247.686523     0.000308  3273.701523     0.000000 
  16.358856  3104.427490     0.000322  3116.335576     0.000000 
  16.379009  3020.336426     0.000331  3020.368941     0.000000 
  16.399163  2981.181396     0.000335  2970.684901     0.000000 
  16.419316  2960.981445     0.000338  2947.957941     0.000000 
  16.439470  2951.616943     0.000339  2938.223049     0.000000 
  16.459623  2946.711182     0.000339  2934.097732     0.000000 
  16.479777  2941.756836     0.000340  2932.458533     0.000000 
  16.499930  2938.826904     0.000340  2932.166271     0.000000 
  16.520084  2938.033691     0.000340  2932.829099     0.000000 
  16.540237  2939.907959     0.000340  2934.316507     0.000000 
  16.560391  2942.336182     0.000340  2936.608016     0.000000 
  16.580544  2944.205078     0.000340  2939.756826     0.000000 
  16.600698  2945.267334     0.000340  2943.889734     0.000000 
  16.620851  2947.280762     0.000339  2949.224997     0.000000 
  16.641005  2952.791504     0.000339  2956.108189     0.000000 
  16.661159  2961.565674     0.000338  2965.214201     0.000000 
  16.681312  2972.969727     0.000336  2977.114479     0.000000 
  16.701466  2985.537109     0.000335  2993.311264     0.000000 
  16.721619  3008.885986     0.000332  3016.162709     0.000000 
  16.741773  3052.743408     0.000328  3050.214096     0.000000 
  16.761926  3146.241211     0.000318  3105.352042     0.000000 
  16.782080  3327.747314     0.000301  3203.145127     0.000000 
  16.802233  3600.780762     0.000278  3383.020625     0.000000 
  16.822387  3921.250000     0.000255  3693.158521     0.000000 
  16.842540  4327.085449     0.000231  4112.633625     0.000000 
  16.862694  4336.136230     0.000231  4323.546491     0.000000 
  16.882847  4080.097168     0.000245  4036.013606     0.000000 
  16.903001  3756.699707     0.000266  3627.070103     0.000000 
  16.923154  3437.557861     0.000291  3346.123427     0.000000 
  16.943308  3195.274414     0.000313  3187.431226     0.000000 
  16.963461  3099.356934     0.000323  3101.989906     0.000000 
  16.983615  3039.966064     0.000329  3053.852321     0.000000 
  17.003768  3011.386230     0.000332  3024.251651     0.000000 
  17.023922  2993.460693     0.000334  3004.694048     0.000000 
  17.044076  2981.717773     0.000335  2991.263767     0.000000 
  17.064229  2977.345215     0.000336  2981.711911     0.000000 
  17.084383  2976.255615     0.000336  2974.845773     0.000000 
  17.104536  2973.926758     0.000336  2969.876759     0.000000 
  17.124690  2969.450439     0.000337  2966.290968     0.000000 
  17.144843  2967.901367     0.000337  2963.744106     0.000000 
  17.164997  2967.225586     0.000337  2962.000112     0.000000 
  17.185150  2968.430908     0.000337  2960.894412     0.000000 
  17.205304  2966.117188     0.000337  2960.312048     0.000000 
  17.225457  2966.692139     0.000337  2960.172928     0.000000 
  17.245611  2966.865723     0.000337  2960.422717     0.000000 
  17.265764  2969.811523     0.000337  2961.027075     0.000000 
  17.285918  2970.864746     0.000337  2961.968151     0.000000 
  17.306071  2971.926270     0.000336  2963.297913     0.000000 
  17.326225  2972.980225     0.000336  2964.918335     0.000000 
  17.346378  2974.358643     0.000336  2966.909389     0.000000 
  17.366532  2977.054199     0.000336  2969.314304     0.000000 
  17.386685  2981.298828     0.000335  2972.269854     0.000000 
  17.406839  2986.554443     0.000335  2975.725298     0.000000 
  17.426993  2993.081543     0.000334  2979.879454     0.000000 
  17.447146  3005.693359     0.000333  2984.912613     0.000000 
  17.467300  3016.163818     0.000332  2991.079888     0.000000 
  17.487453  3029.527100     0.000330  2998.748979     0.000000 
  17.507607  3043.125977     0.000329  3008.470097     0.000000 
  17.527760  3064.022949     0.000326  3021.138562     0.000000 
  17.547914  3083.681152     0.000324  3038.452879     0.000000 
  17.568067  3111.012207     0.000321  3064.189621     0.000000 
  17.588221  3140.663818     0.000318  3107.069451     0.000000 
  17.608374  3187.752441     0.000314  3184.998526     0.000000 
  17.628528  3256.820801     0.000307  3326.770442     0.000000 
  17.648681  3395.303955     0.000295  3563.170820     0.000000 
  17.668835  3568.288818     0.000280  3901.225381     0.000000 
  17.688988  3786.813721     0.000264  4278.167353     0.000000 
  17.709142  3935.406006     0.000254  4504.880096     0.000000 
  17.729295  3942.007324     0.000254  4390.253302     0.000000 
  17.749449  3771.694580     0.000265  4042.228323     0.000000 
  17.769603  3520.339600     0.000284  3684.117537     0.000000 
  17.789756  3296.636475     0.000303  3418.572218     0.000000 
  17.809910  3160.339111     0.000316  3257.700319     0.000000 
  17.830063  3106.498047     0.000322  3178.295712     0.000000 
  17.850217  3098.098145     0.000323  3154.721606     0.000000 
  17.870370  3105.986328     0.000322  3168.995613     0.000000 
  17.890524  3106.136230     0.000322  3184.084661     0.000000 
  17.910677  3094.550781     0.000323  3148.395041     0.000000 
  17.930831  3071.573242     0.000326  3099.947120     0.000000 
  17.950984  3049.595703     0.000328  3070.552096     0.000000 
  17.971138  3033.933838     0.000330  3057.346054     0.000000 
  17.991291  3027.513184     0.000330  3054.437816     0.000000 
  18.011445  3026.710938     0.000330  3058.327050     0.000000 
  18.031598  3031.851074     0.000330  3066.932423     0.000000 
  18.051752  3047.868408     0.000328  3078.592985     0.000000 
  18.071905  3075.079834     0.000325  3091.524879     0.000000 
  18.092059  3113.440186     0.000321  3103.586683     0.000000 
  18.112212  3152.864258     0.000317  3112.341602     0.000000 
  18.132366  3169.998779     0.000315  3116.609656     0.000000 
  18.152520  3156.723633     0.000317  3113.058710     0.000000 
  18.172673  3122.973877     0.000320  3102.164833     0.000000 
  18.192827  3086.141357     0.000324  3088.341894     0.000000 
  18.212980  3062.403564     0.000327  3072.407871     0.000000 
  18.233134  3047.329346     0.000328  3056.625561     0.000000 
  18.253287  3040.319092     0.000329  3042.180933     0.000000 
  18.273441  3035.563965     0.000329  3029.889902     0.000000 
  18.293594  3030.382080     0.000330  3020.089824     0.000000 
  18.313748  3030.140137     0.000330  3012.742294     0.000000 
  18.333901  3031.163574     0.000330  3007.559092     0.000000 
  18.354055  3030.932129     0.000330  3004.129063     0.000000 
  18.374208  3032.443848     0.000330  3002.022287     0.000000 
  18.394362  3033.556641     0.000330  3000.858054     0.000000 
  18.414515  3034.395996     0.000330  3000.336306     0.000000 
  18.434669  3033.366943     0.000330  3000.241387     0.000000 
  18.454822  3032.243408     0.000330  3000.429549     0.000000 
  18.474976  3032.873291     0.000330  3000.810991     0.000000 
  18.495129  3032.932617     0.000330  3001.332834     0.000000 
  18.515283  3034.233398     0.000330  3001.965581     0.000000 
  18.535437  3032.039307     0.000330  3002.694099     0.000000 
  18.555590  3032.803955     0.000330  3003.512274     0.000000 
  18.575744  3032.561768     0.000330  3004.420312     0.000000 
  18.595897  3036.407959     0.000329  3005.423858     0.000000 
  18.616051  3039.589111     0.000329  3006.534443     0.000000 
  18.636204  3042.035645     0.000329  3007.771193     0.000000 
  18.656358  3043.343750     0.000329  3009.164076     0.000000 
  18.676511  3045.520264     0.000328  3010.759574     0.000000 
  18.696665  3048.621094     0.000328  3012.631914     0.000000 
  18.716818  3053.091309     0.000328  3014.907524     0.000000 
  18.736972  3060.427246     0.000327  3017.825251     0.000000 
  18.757125  3076.465576     0.000325  3021.872904     0.000000 
  18.777279  3099.145264     0.000323  3028.014410     0.000000 
  18.797432  3123.383545     0.000320  3037.867740     0.000000 
  18.817586  3140.819336     0.000318  3053.424290     0.000000 
  18.837739  3147.380371     0.000318  3076.441395     0.000000 
  18.857893  3144.207275     0.000318  3097.309157     0.000000 
  18.878046  3128.048828     0.000320  3099.076374     0.000000 
  18.898200  3111.621094     0.000321  3081.560925     0.000000 
  18.918354  3092.756836     0.000323  3063.171811     0.000000 
  18.938507  3082.035645     0.000324  3051.862167     0.000000 
  18.958661  3073.523193     0.000325  3048.121174     0.000000 
  18.978814  3073.511719     0.000325  3051.634046     0.000000 
  18.998968  3078.207275     0.000325  3062.960288     0.000000 
  19.019121  3092.720459     0.000323  3082.968597     0.000000 
  19.039275  3116.345703     0.000321  3111.116841     0.000000 
  19.059428  3147.066895     0.000318  3143.611709     0.000000 
  19.079582  3173.796875     0.000315  3172.441239     0.000000 
  19.099735  3182.833496     0.000314  3186.673032     0.000000 
  19.119889  3171.020264     0.000315  3179.352129     0.000000 
  19.140042  3144.304688     0.000318  3154.726891     0.000000 
  19.160196  3113.375000     0.000321  3123.835758     0.000000 
  19.180349  3091.132812     0.000324  3095.445630     0.000000 
  19.200503  3075.339355     0.000325  3074.157173     0.000000 
  19.220656  3068.491699     0.000326  3060.755300     0.000000 
  19.240810  3063.222412     0.000326  3053.712297     0.000000 
  19.260963  3061.489258     0.000327  3050.827508     0.000000 
  19.281117  3061.106934     0.000327  3049.275841     0.000000 
  19.301271  3059.200684     0.000327  3049.958729     0.000000 
  19.321424  3057.760254     0.000327  3051.277601     0.000000 
  19.341578  3056.760254     0.000327  3052.993237     0.000000 
  19.361731  3059.906982     0.000327  3055.023390     0.000000 
  19.381885  3061.504639     0.000327  3057.353081     0.000000 
  19.402038  3064.801514     0.000326  3059.998376     0.000000 
  19.422192  3067.899170     0.000326  3062.995349     0.000000 
  19.442345  3070.266602     0.000326  3066.398916     0.000000 
  19.462499  3070.859863     0.000326  3070.285619     0.000000 
  19.482652  3072.147705     0.000326  3074.760282     0.000000 
  19.502806  3077.523193     0.000325  3079.965595     0.000000 
  19.522959  3084.094971     0.000324  3086.128784     0.000000 
  19.543113  3088.300781     0.000324  3093.457696     0.000000 
  19.563266  3094.407227     0.000323  3102.366111     0.000000 
  19.583420  3102.773438     0.000322  3113.409747     0.000000 
  19.603573  3117.083496     0.000321  3127.437226     0.000000 
  19.623727  3133.321777     0.000319  3145.861448     0.000000 
  19.643880  3161.995117     0.000316  3171.303837     0.000000 
  19.664034  3208.606445     0.000312  3209.203315     0.000000 
  19.684188  3293.458984     0.000304  3268.996108     0.000000 
  19.704341  3427.911133     0.000292  3367.433281     0.000000 
  19.724495  3630.640869     0.000275  3526.118408     0.000000 
  19.744648  3873.731201     0.000258  3762.970148     0.000000 
  19.764802  4158.103027     0.000240  4067.609149     0.000000 
  19.784955  4348.046875     0.000230  4342.915822     0.000000 
  19.805109  4388.858887     0.000228  4392.054810     0.000000 
  19.825262  4233.367676     0.000236  4170.173811     0.000000 
  19.845416  3978.476562     0.000251  3864.666900     0.000000 
  19.865569  3683.500244     0.000271  3611.903851     0.000000 
  19.885723  3490.514160     0.000286  3441.249847     0.000000 
  19.905876  3363.975830     0.000297  3339.172990     0.000000 
  19.926030  3298.111084     0.000303  3282.208561     0.000000 
  19.946183  3264.512939     0.000306  3249.212767     0.000000 
  19.966337  3234.995361     0.000309  3225.544369     0.000000 
  19.986490  3205.063232     0.000312  3204.277984     0.000000 
  20.006644  3176.275391     0.000315  3184.647811     0.000000 
  20.026798  3154.771240     0.000317  3168.163234     0.000000 
  20.046951  3137.128418     0.000319  3156.188482     0.000000 
  20.067105  3126.791260     0.000320  3149.343099     0.000000 
  20.087258  3119.744141     0.000321  3147.573034     0.000000 
  20.107412  3120.826416     0.000320  3150.458456     0.000000 
  20.127565  3123.244385     0.000320  3157.506142     0.000000 
  20.147719  3128.058838     0.000320  3168.263867     0.000000 
  20.167872  3135.644531     0.000319  3182.258066     0.000000 
  20.188026  3149.416016     0.000318  3198.849853     0.000000 
  20.208179  3169.795654     0.000315  3217.095710     0.000000 
  20.228333  3194.781494     0.000313  3235.650526     0.000000 
  20.248486  3215.901367     0.000311  3252.735010     0.000000 
  20.268640  3230.506592     0.000310  3266.241771     0.000000 
  20.288793  3231.508789     0.000309  3274.146990     0.000000 
  20.308947  3221.288818     0.000310  3275.236010     0.000000 
  20.329100  3202.364990     0.000312  3269.700036     0.000000 
  20.349254  3183.426025     0.000314  3259.045835     0.000000 
  20.369407  3164.546875     0.000316  3245.338484     0.000000 
  20.389561  3152.562012     0.000317  3230.816182     0.000000 
  20.409715  3144.517822     0.000318  3217.136788     0.000000 
  20.429868  3143.188477     0.000318  3205.595768     0.000000 
  20.450022  3143.378662     0.000318  3197.089349     0.000000 
  20.470175  3148.030029     0.000318  3192.195415     0.000000 
  20.490329  3156.780029     0.000317  3191.304629     0.000000 
  20.510482  3170.057373     0.000315  3194.832731     0.000000 
  20.530636  3187.522949     0.000314  3203.554725     0.000000 
  20.550789  3209.453125     0.000312  3219.076682     0.000000 
  20.570943  3245.113037     0.000308  3244.352775     0.000000 
  20.591096  3299.314941     0.000303  3283.948830     0.000000 
  20.611250  3383.957275     0.000296  3343.672960     0.000000 
  20.631403  3489.843262     0.000287  3429.250764     0.000000 
  20.651557  3613.468994     0.000277  3542.858514     0.000000 
  20.671710  3710.777588     0.000269  3674.987124     0.000000 
  20.691864  3800.224609     0.000263  3802.939118     0.000000 
  20.712017  3882.907959     0.000258  3926.057760     0.000000 
  20.732171  4061.620361     0.000246  4081.565572     0.000000 
  20.752324  4371.772949     0.000229  4289.362818     0.000000 
  20.772478  4769.296387     0.000210  4513.573611     0.000000 
  20.792632  5098.765137     0.000196  4658.143568     0.000000 
  20.812785  5168.195801     0.000193  4620.699659     0.000000 
  20.832939  4945.158691     0.000202  4406.211800     0.000000 
  20.853092  4515.041992     0.000221  4116.366404     0.000000 
  20.873246  4009.947510     0.000249  3839.924674     0.000000 
  20.893399  3628.929688     0.000276  3618.522106     0.000000 
  20.913553  3377.699707     0.000296  3461.021159     0.000000 
  20.933706  3250.220703     0.000308  3358.731756     0.000000 
  20.953860  3191.471680     0.000313  3296.138907     0.000000 
  20.974013  3165.741699     0.000316  3258.526547     0.000000 
  20.994167  3153.519043     0.000317  3235.260264     0.000000 
  21.014320  3148.002441     0.000318  3219.941947     0.000000 
  21.034474  3143.300537     0.000318  3209.166434     0.000000 
  21.054627  3141.284180     0.000318  3201.168760     0.000000 
  21.074781  3139.375000     0.000319  3195.160125     0.000000 
  21.094934  3140.391357     0.000318  3190.581607     0.000000 
  21.115088  3140.424072     0.000318  3187.106203     0.000000 
  21.135241  3140.120117     0.000318  3184.505402     0.000000 
  21.155395  3139.870117     0.000318  3182.612399     0.000000 
  21.175549  3142.681885     0.000318  3181.302697     0.000000 
  21.195702  3145.725830     0.000318  3180.482499     0.000000 
  21.215856  3146.341064     0.000318  3180.081687     0.000000 
  21.236009  3146.218018     0.000318  3180.048470     0.000000 
  21.256163  3149.293213     0.000318  3180.346025     0.000000 
  21.276316  3151.248291     0.000317  3180.950642     0.000000 
  21.296470  3154.560791     0.000317  3181.851339     0.000000 
  21.316623  3157.746094     0.000317  3183.051718     0.000000 
  21.336777  3161.583984     0.000316  3184.575952     0.000000 
  21.356930  3167.177490     0.000316  3186.482024     0.000000 
  21.377084  3171.754395     0.000315  3188.885671     0.000000 
  21.397237  3178.479248     0.000315  3191.992368     0.000000 
  21.417391  3186.477295     0.000314  3196.122131     0.000000 
  21.437544  3199.267578     0.000313  3201.694908     0.000000 
  21.457698  3214.079590     0.000311  3209.142806     0.000000 
  21.477851  3238.598389     0.000309  3218.726853     0.000000 
  21.498005  3292.270264     0.000304  3229.133948     0.000000 
#######	End powder diffraction data	#######
