_publ_contact_author_name            'Danna Freedman'
_publ_contact_author_address         '77 Massachusetts Avenue (18-592), Cambridge, MA 02139, United States'
_publ_contact_author_email           danna@mit.edu

# start Validation Reply Form
_vrf_REFLT02_Ca2MnTeO6_0
;
PROBLEM: The number of reflections greater than the sigma threshold
RESPONSE: The number of reflections greater than the sigma threshold and number of symmmetry-indpendent reflections are both reported as 0.
;
_vrf_PLAT881_Ca2MnTeO6_0
;
PROBLEM: No Datum for _diffrn_reflns_av_R_equivalents ...     Please Do !  
RESPONSE: These values are not calculated for this powder cif.
;
# end Validation Reply Form


#######	Begin powder crystal structure	#######
data_Ca2MnTeO6_0

_pd_block_id	Ca2MnTeO6_0
_pd_block_diffractogram_id	Ca2_Mn_Te_O6_raw.xy_0
_pd_phase_name
;Ca2MnTeO6
;
_chemical_formula_structural        'Ca2 Mn Te O6'
_chemical_formula_sum               'Ca2 Mn Te O6'
_chemical_formula_weight	358.69

_space_group_crystal_system	monoclinic       
_space_group_name_H-M_alt	P21/c
_space_group_name_Hall	 '-P 2ybc'
_space_group_IT_number	14
_exptl_crystal_description 'powder'
_exptl_crystal_colour 'grayish brown'

_cell_length_a	5.49294(15)
_cell_length_b	5.65832(14)
_cell_length_c	9.5802(3)
_cell_angle_alpha	90
_cell_angle_beta	125.124428
_cell_angle_gamma	90
_cell_volume	243.539(11)
_exptl_crystal_density_diffrn	4.8914(2)
_exptl_absorpt_coefficient_mu	86.586(4)
_diffrn_radiation_wavelength	1.540560000
_cell_formula_units_Z	2
_cell_measurement_temperature	295
_diffrn_ambient_temperature	295
_cell_measurement_pressure	101
_cell_measurement_theta_min	2.5
_cell_measurement_theta_max	70
_cell_measurement_reflns_used 444
_diffrn_reflns_number 444
_diffrn_measured_fraction_theta_full 1

loop_
	_space_group_symop_id
	_space_group_symop_operation_xyz
	  1 'x, y, z '
	  2 '-x, y+1/2, -z+1/2 '
	  3 'x, -y+1/2, z+1/2 '
	  4 '-x, -y, -z '
loop_
	_atom_site_label
	_atom_site_type_symbol
	_atom_site_site_symmetry_multiplicity
	_atom_site_fract_x
	_atom_site_fract_y
	_atom_site_fract_z
	_atom_site_occupancy
	_atom_site_B_iso_or_equiv
Ca0 Ca   4 0.74854 0.4495(6) 0.23562 1 0
Mn1 Mn   2 0.5 0 0 1 0
Te2 Te   2 0 0 0.5 1 0
O3 O   4 0.78808 0.76344 0.0512 1 0
O4 O   4 0.78808 0.23656 0.0512 1 0
O5 O   4 0.64326 0 0.23714 1 0
loop_
	_geom_bond_atom_site_label_1
	_geom_bond_atom_site_label_2
	_geom_bond_distance
	_geom_bond_site_symmetry_1
	_geom_bond_site_symmetry_2
	Ca0       O4        2.2499(18) 1_555   1_555
	Ca0       O5        2.3297(3) 1_555   2_655
	Ca0       O3        2.4034(15) 1_555   2_745
	Ca0       O3        2.601(2) 1_555   1_555
	Ca0       O5        2.610(3) 1_555   1_555
	Ca0       O4        2.703(2) 1_555   2_755
	Ca0       O3        2.8932(14) 1_555   4_665
	Ca0       O4        3.0887(12) 1_555   3_555
	Ca0       Mn1       3.144(3) 1_555   1_555
	Ca0       O5        3.170(3) 1_555   1_565
	Ca0       O4        3.1740(18) 1_555   4_665
	Mn1       O3        1.90870(4) 1_555   4_665
	Mn1       O3        1.90870(4) 1_555   1_545
	Mn1       O4        1.90870(4) 1_555   1_555
	Mn1       O4        1.90870(4) 1_555   4_655
	Mn1       O5        1.92959(6) 1_555   1_555
	Mn1       O5        1.92959(6) 1_555   4_655
	Mn1       Ca0       3.144(3) 1_555   4_655
	Mn1       Ca0       3.144(3) 1_555   1_555
	Te2       O4        2.11534(3) 1_555   2_645
	Te2       O4        2.11534(3) 1_555   3_455
	Te2       O3        2.11534(3) 1_555   2_645
	Te2       O3        2.11534(3) 1_555   3_455
	Te2       O5        2.12205(5) 1_555   4_656
	Te2       O5        2.12205(5) 1_555   1_455
	O3        Mn1       1.90870(4) 1_555   1_565
	O3        Te2       2.11534(3) 1_555   2_655
	O3        Ca0       2.4034(15) 1_555   2_755
	O3        Ca0       2.601(2) 1_555   1_555
	O3        O4        2.67707(7) 1_555   1_565
	O3        O5        2.68854(5) 1_555   1_565
	O3        O4        2.72136(8) 1_555   4_665
	O3        O5        2.73947(4) 1_555   4_665
	O3        Ca0       2.8932(14) 1_555   4_665
	O3        O5        2.96685(6) 1_555   2_755
	O3        O4        2.98126(8) 1_555   1_555
	O3        O4        3.00178(6) 1_555   4_765
	O3        O5        3.02543(7) 1_555   3_554
	O3        O4        3.12216(8) 1_555   2_755
	O4        Mn1       1.90870(4) 1_555   1_555
	O4        Te2       2.11534(3) 1_555   2_655
	O4        Ca0       2.2499(18) 1_555   1_555
	O4        O3        2.67707(7) 1_555   1_545
	O4        O5        2.68854(5) 1_555   1_555
	O4        Ca0       2.703(2) 1_555   2_745
	O4        O3        2.72136(8) 1_555   4_665
	O4        O5        2.73947(4) 1_555   4_655
	O4        O5        2.96685(6) 1_555   2_755
	O4        O3        2.98126(8) 1_555   1_555
	O4        O3        3.00178(6) 1_555   4_765
	O4        O5        3.02543(7) 1_555   3_554
	O4        Ca0       3.0887(12) 1_555   3_554
	O4        O3        3.12216(8) 1_555   2_745
	O4        Ca0       3.1740(18) 1_555   4_665
	O5        Mn1       1.92959(6) 1_555   1_555
	O5        Te2       2.12205(5) 1_555   1_655
	O5        Ca0       2.3297(3) 1_555   2_645
	O5        Ca0       2.610(3) 1_555   1_555
	O5        O4        2.68854(5) 1_555   1_555
	O5        O3        2.68854(5) 1_555   1_545
	O5        O3        2.73947(4) 1_555   4_665
	O5        O4        2.73947(4) 1_555   4_655
	O5        O4        2.96685(6) 1_555   2_745
	O5        O3        2.96685(6) 1_555   2_745
	O5        O3        3.02543(7) 1_555   3_555
	O5        O4        3.02543(7) 1_555   3_555
	O5        Ca0       3.170(3) 1_555   1_545
	loop_
		_geom_angle_atom_site_label_1
		_geom_angle_atom_site_label_2
		_geom_angle_atom_site_label_3
		_geom_angle
		_geom_angle_site_symmetry_1
		_geom_angle_site_symmetry_2
		_geom_angle_site_symmetry_3
	O5        Ca0       O4         131.79(8)  2_655 1_555   1_555
	O3        Ca0       O5         123.61(5)  2_745 1_555   2_655
	O3        Ca0       O4         84.21(7)  2_745 1_555   1_555
	O3        Ca0       O3         114.51(3)  1_555 1_555   2_745
	O3        Ca0       O5         115.84(10)  1_555 1_555   2_655
	O3        Ca0       O4         75.453(15)  1_555 1_555   1_555
	O5        Ca0       O3         140.77(6)  1_555 1_555   1_555
	O5        Ca0       O3         72.43(8)  1_555 1_555   2_745
	O5        Ca0       O5         84.09(7)  1_555 1_555   2_655
	O5        Ca0       O4         66.69(8)  1_555 1_555   1_555
	O4        Ca0       O5         134.16(6)  2_755 1_555   1_555
	O4        Ca0       O3         72.09(7)  2_755 1_555   1_555
	O4        Ca0       O3         62.915(13)  2_755 1_555   2_745
	O4        Ca0       O5         111.76(8)  2_755 1_555   2_655
	O4        Ca0       O4         116.152(9)  2_755 1_555   1_555
	O3        Ca0       O4         165.88(10)  4_665 1_555   2_755
	O3        Ca0       O5         59.44(5)  4_665 1_555   1_555
	O3        Ca0       O3         94.411(14)  4_665 1_555   1_555
	O3        Ca0       O3         128.81(13)  4_665 1_555   2_745
	O3        Ca0       O5         69.84(2)  4_665 1_555   2_655
	O3        Ca0       O4         62.42(4)  4_665 1_555   1_555
	O4        Ca0       O3         104.31(6)  3_555 1_555   4_665
	O4        Ca0       O4         87.703(10)  3_555 1_555   2_755
	O4        Ca0       O5         63.48(5)  3_555 1_555   1_555
	O4        Ca0       O3         155.69(11)  3_555 1_555   1_555
	O4        Ca0       O3         64.87(3)  3_555 1_555   2_745
	O4        Ca0       O5         58.763(19)  3_555 1_555   2_655
	O4        Ca0       O4         127.01(13)  3_555 1_555   1_555
	Mn1       Ca0       O4         100.60(8)  1_555 1_555   3_555
	Mn1       Ca0       O3         36.57(3)  1_555 1_555   4_665
	Mn1       Ca0       O4         149.30(5)  1_555 1_555   2_755
	Mn1       Ca0       O5         37.77(4)  1_555 1_555   1_555
	Mn1       Ca0       O3         103.67(2)  1_555 1_555   1_555
	Mn1       Ca0       O3         93.77(10)  1_555 1_555   2_745
	Mn1       Ca0       O5         97.59(7)  1_555 1_555   2_655
	Mn1       Ca0       O4         36.97(4)  1_555 1_555   1_555
	O5        Ca0       Mn1        142.50(3)  1_565 1_555   1_555
	O5        Ca0       O4         103.93(5)  1_565 1_555   3_555
	O5        Ca0       O3         108.95(5)  1_565 1_555   4_665
	O5        Ca0       O4         60.06(7)  1_565 1_555   2_755
	O5        Ca0       O5         156.340(4)  1_565 1_555   1_555
	O5        Ca0       O3         54.46(6)  1_565 1_555   1_555
	O5        Ca0       O3         122.23(8)  1_565 1_555   2_745
	O5        Ca0       O5         72.32(7)  1_565 1_555   2_655
	O5        Ca0       O4         129.06(8)  1_565 1_555   1_555
	O4        Ca0       O5         51.17(5)  4_665 1_555   1_565
	O4        Ca0       Mn1        91.596(17)  4_665 1_555   1_555
	O4        Ca0       O4         123.05(2)  4_665 1_555   3_555
	O4        Ca0       O3         58.644(9)  4_665 1_555   4_665
	O4        Ca0       O4         108.64(11)  4_665 1_555   2_755
	O4        Ca0       O5         116.86(4)  4_665 1_555   1_555
	O4        Ca0       O3         55.15(4)  4_665 1_555   1_555
	O4        Ca0       O3         169.35(8)  4_665 1_555   2_745
	O4        Ca0       O5         64.58(4)  4_665 1_555   2_655
	O4        Ca0       O4         94.649(12)  4_665 1_555   1_555
	O3        Mn1       O3         180.0000000(2)  1_545 1_555   4_665
	O4        Mn1       O3         89.060(2)  1_555 1_555   1_545
	O4        Mn1       O3         90.940(2)  1_555 1_555   4_665
	O4        Mn1       O4         180.0000000(2)  4_655 1_555   1_555
	O4        Mn1       O3         90.940(2)  4_655 1_555   1_545
	O4        Mn1       O3         89.060(2)  4_655 1_555   4_665
	O5        Mn1       O4         91.07520(9)  1_555 1_555   4_655
	O5        Mn1       O4         88.92480(9)  1_555 1_555   1_555
	O5        Mn1       O3         88.92480(9)  1_555 1_555   1_545
	O5        Mn1       O3         91.07520(9)  1_555 1_555   4_665
	O5        Mn1       O5         179.9999991(2)  4_655 1_555   1_555
	O5        Mn1       O4         88.92480(9)  4_655 1_555   4_655
	O5        Mn1       O4         91.07520(9)  4_655 1_555   1_555
	O5        Mn1       O3         91.07520(9)  4_655 1_555   1_545
	O5        Mn1       O3         88.92480(9)  4_655 1_555   4_665
	Ca0       Mn1       O5         55.95(3)  4_655 1_555   4_655
	Ca0       Mn1       O5         124.05(3)  4_655 1_555   1_555
	Ca0       Mn1       O4         45.150(11)  4_655 1_555   4_655
	Ca0       Mn1       O4         134.850(11)  4_655 1_555   1_555
	Ca0       Mn1       O3         64.56(2)  4_655 1_555   1_545
	Ca0       Mn1       O3         115.44(2)  4_655 1_555   4_665
	Ca0       Mn1       Ca0        180.000   1_555 1_555   4_655
	Ca0       Mn1       O5         124.05(3)  1_555 1_555   4_655
	Ca0       Mn1       O5         55.95(3)  1_555 1_555   1_555
	Ca0       Mn1       O4         134.850(11)  1_555 1_555   4_655
	Ca0       Mn1       O4         45.150(11)  1_555 1_555   1_555
	Ca0       Mn1       O3         115.44(2)  1_555 1_555   1_545
	Ca0       Mn1       O3         64.56(2)  1_555 1_555   4_665
	O4        Te2       O4         180.0000000(3)  3_455 1_555   2_645
	O3        Te2       O4         90.3930(19)  2_645 1_555   3_455
	O3        Te2       O4         89.6070(19)  2_645 1_555   2_645
	O3        Te2       O3         179.9999988(4)  3_455 1_555   2_645
	O3        Te2       O4         89.6070(19)  3_455 1_555   3_455
	O3        Te2       O4         90.3930(19)  3_455 1_555   2_645
	O5        Te2       O3         88.8799(17)  4_656 1_555   3_455
	O5        Te2       O3         91.1201(17)  4_656 1_555   2_645
	O5        Te2       O4         88.8799(17)  4_656 1_555   3_455
	O5        Te2       O4         91.1201(17)  4_656 1_555   2_645
	O5        Te2       O5         180.0000000(3)  1_455 1_555   4_656
	O5        Te2       O3         91.1201(17)  1_455 1_555   3_455
	O5        Te2       O3         88.8799(17)  1_455 1_555   2_645
	O5        Te2       O4         91.1201(17)  1_455 1_555   3_455
	O5        Te2       O4         88.8799(17)  1_455 1_555   2_645
	Te2       O3        Mn1        156.9338(7)  2_655 1_555   1_565
	Ca0       O3        Te2        92.91(5)  2_755 1_555   2_655
	Ca0       O3        Mn1        103.14(6)  2_755 1_555   1_565
	Ca0       O3        Ca0        100.57(2)  1_555 1_555   2_755
	Ca0       O3        Te2        87.04(5)  1_555 1_555   2_655
	Ca0       O3        Mn1        105.82(4)  1_555 1_555   1_565
	O4        O3        Ca0        133.07(6)  1_565 1_555   1_555
	O4        O3        Ca0        64.02(7)  1_565 1_555   2_755
	O4        O3        Te2        134.8035(9)  1_565 1_555   2_655
	O4        O3        Mn1        45.4701(11)  1_565 1_555   1_565
	O5        O3        O4         60.1410(8)  1_565 1_555   1_565
	O5        O3        Ca0        73.61(5)  1_565 1_555   1_555
	O5        O3        Ca0        77.95(3)  1_565 1_555   2_755
	O5        O3        Te2        156.4266(3)  1_565 1_555   2_655
	O5        O3        Mn1        45.8555(11)  1_565 1_555   1_565
	O4        O3        O5         60.8425(10)  4_665 1_555   1_565
	O4        O3        O4         90.000    4_665 1_555   1_565
	O4        O3        Ca0        73.177(15)  4_665 1_555   1_555
	O4        O3        Ca0        138.57(4)  4_665 1_555   2_755
	O4        O3        Te2        126.6838(10)  4_665 1_555   2_655
	O4        O3        Mn1        44.5299(11)  4_665 1_555   1_565
	O5        O3        O4         58.9868(10)  4_665 1_555   4_665
	O5        O3        O5         90.624(2)  4_665 1_555   1_565
	O5        O3        O4         60.7507(8)  4_665 1_555   1_565
	O5        O3        Ca0        131.058(5)  4_665 1_555   1_555
	O5        O3        Ca0        121.43(7)  4_665 1_555   2_755
	O5        O3        Te2        112.4927(18)  4_665 1_555   2_655
	O5        O3        Mn1        44.7686(11)  4_665 1_555   1_565
	Ca0       O3        O5         55.13(6)  4_665 1_555   4_665
	Ca0       O3        O4         47.12(3)  4_665 1_555   4_665
	Ca0       O3        O5         107.97(3)  4_665 1_555   1_565
	Ca0       O3        O4         114.61(6)  4_665 1_555   1_565
	Ca0       O3        Ca0        85.589(14)  4_665 1_555   1_555
	Ca0       O3        Ca0        172.5880(17)  4_665 1_555   2_755
	Ca0       O3        Te2        83.23(4)  4_665 1_555   2_655
	Ca0       O3        Mn1        78.87(5)  4_665 1_555   1_565
	O5        O3        Ca0        122.45(6)  2_755 1_555   4_665
	O5        O3        O5         153.4228(3)  2_755 1_555   4_665
	O5        O3        O4         142.6647(10)  2_755 1_555   4_665
	O5        O3        O5         113.1922(18)  2_755 1_555   1_565
	O5        O3        O4         120.1607(9)  2_755 1_555   1_565
	O5        O3        Ca0        70.07(2)  2_755 1_555   1_555
	O5        O3        Ca0        57.01(7)  2_755 1_555   2_755
	O5        O3        Te2        45.6526(14)  2_755 1_555   2_655
	O5        O3        Mn1        156.8032(6)  2_755 1_555   1_565
	O4        O3        O5         59.8393(9)  1_555 1_555   2_755
	O4        O3        Ca0        65.39(6)  1_555 1_555   4_665
	O4        O3        O5         119.2493(8)  1_555 1_555   4_665
	O4        O3        O4         90.000    1_555 1_555   4_665
	O4        O3        O5         119.8590(8)  1_555 1_555   1_565
	O4        O3        O4         179.9999991(2)  1_555 1_555   1_565
	O4        O3        Ca0        46.93(6)  1_555 1_555   1_555
	O4        O3        Ca0        115.98(7)  1_555 1_555   2_755
	O4        O3        Te2        45.1965(9)  1_555 1_555   2_655
	O4        O3        Mn1        134.5299(11)  1_555 1_555   1_565
	O4        O3        O4         90.000    4_765 1_555   1_555
	O4        O3        O5         60.9102(19)  4_765 1_555   2_755
	O4        O3        Ca0        104.333(8)  4_765 1_555   4_665
	O4        O3        O5         93.091(2)  4_765 1_555   4_665
	O4        O3        O4         147.3483(12)  4_765 1_555   4_665
	O4        O3        O5         142.8739(6)  4_765 1_555   1_565
	O4        O3        O4         90.000    4_765 1_555   1_565
	O4        O3        Ca0        127.27(4)  4_765 1_555   1_555
	O4        O3        Ca0        68.678(14)  4_765 1_555   2_755
	O4        O3        Te2        44.8035(9)  4_765 1_555   2_655
	O4        O3        Mn1        126.8860(12)  4_765 1_555   1_565
	O5        O3        O4         58.9747(11)  3_554 1_555   4_765
	O5        O3        O4         60.4818(10)  3_554 1_555   1_555
	O5        O3        O5         90.1815(12)  3_554 1_555   2_755
	O5        O3        Ca0        46.294(18)  3_554 1_555   4_665
	O5        O3        O5         69.9983(18)  3_554 1_555   4_665
	O5        O3        O4         93.19173(10)  3_554 1_555   4_665
	O5        O3        O5         153.5704(8)  3_554 1_555   1_565
	O5        O3        O4         119.5182(10)  3_554 1_555   1_565
	O5        O3        Ca0        105.19(5)  3_554 1_555   1_555
	O5        O3        Ca0        127.22(2)  3_554 1_555   2_755
	O5        O3        Te2        44.5289(6)  3_554 1_555   2_655
	O5        O3        Mn1        112.6569(8)  3_554 1_555   1_565
	O4        O3        O5         140.7256(12)  2_755 1_555   3_554
	O4        O3        O4         102.978(2)  2_755 1_555   4_765
	O4        O3        O4         87.20774(10)  2_755 1_555   1_555
	O4        O3        O5         52.3284(3)  2_755 1_555   2_755
	O4        O3        Ca0        140.85(4)  2_755 1_555   4_665
	O4        O3        O5         149.2295(6)  2_755 1_555   4_665
	O4        O3        O4         109.6336(9)  2_755 1_555   4_665
	O4        O3        O5         60.8638(18)  2_755 1_555   1_565
	O4        O3        O4         92.79226(10)  2_755 1_555   1_565
	O4        O3        Ca0        55.47(3)  2_755 1_555   1_555
	O4        O3        Ca0        45.80(4)  2_755 1_555   2_755
	O4        O3        Te2        97.1817(14)  2_755 1_555   2_655
	O4        O3        Mn1        105.8842(8)  2_755 1_555   1_565
	Te2       O4        Mn1        156.9338(7)  2_655 1_555   1_555
	Ca0       O4        Te2        96.85(6)  1_555 1_555   2_655
	Ca0       O4        Mn1        97.88(5)  1_555 1_555   1_555
	O3        O4        Ca0        122.38(7)  1_545 1_555   1_555
	O3        O4        Te2        134.8035(9)  1_545 1_555   2_655
	O3        O4        Mn1        45.4701(11)  1_545 1_555   1_555
	O5        O4        O3         60.1410(8)  1_555 1_555   1_545
	O5        O4        Ca0        63.08(7)  1_555 1_555   1_555
	O5        O4        Te2        156.4266(3)  1_555 1_555   2_655
	O5        O4        Mn1        45.8555(11)  1_555 1_555   1_555
	Ca0       O4        O5         73.09(2)  2_745 1_555   1_555
	Ca0       O4        O3         53.06(6)  2_745 1_555   1_545
	Ca0       O4        Ca0        101.705(10)  2_745 1_555   1_555
	Ca0       O4        Te2        101.19(4)  2_745 1_555   2_655
	Ca0       O4        Mn1        93.08(5)  2_745 1_555   1_555
	O3        O4        Ca0        131.81(4)  4_665 1_555   2_745
	O3        O4        O5         60.8425(10)  4_665 1_555   1_555
	O3        O4        O3         90.000    4_665 1_555   1_545
	O3        O4        Ca0        70.452(16)  4_665 1_555   1_555
	O3        O4        Te2        126.6838(10)  4_665 1_555   2_655
	O3        O4        Mn1        44.5299(11)  4_665 1_555   1_555
	O5        O4        O3         58.9868(10)  4_655 1_555   4_665
	O5        O4        Ca0        111.12(5)  4_655 1_555   2_745
	O5        O4        O5         90.624(2)  4_655 1_555   1_555
	O5        O4        O3         60.7507(8)  4_655 1_555   1_545
	O5        O4        Ca0        129.439(15)  4_655 1_555   1_555
	O5        O4        Te2        112.4927(18)  4_655 1_555   2_655
	O5        O4        Mn1        44.7686(11)  4_655 1_555   1_555
	O5        O4        O5         153.4228(3)  2_755 1_555   4_655
	O5        O4        O3         142.6647(10)  2_755 1_555   4_665
	O5        O4        Ca0        67.79(6)  2_755 1_555   2_745
	O5        O4        O5         113.1922(18)  2_755 1_555   1_555
	O5        O4        O3         120.1607(9)  2_755 1_555   1_545
	O5        O4        Ca0        74.55(3)  2_755 1_555   1_555
	O5        O4        Te2        45.6526(14)  2_755 1_555   2_655
	O5        O4        Mn1        156.8032(6)  2_755 1_555   1_555
	O3        O4        O5         59.8393(9)  1_555 1_555   2_755
	O3        O4        O5         119.2493(8)  1_555 1_555   4_655
	O3        O4        O3         90.000    1_555 1_555   4_665
	O3        O4        Ca0        126.94(6)  1_555 1_555   2_745
	O3        O4        O5         119.8590(8)  1_555 1_555   1_555
	O3        O4        O3         180.000   1_555 1_555   1_545
	O3        O4        Ca0        57.62(7)  1_555 1_555   1_555
	O3        O4        Te2        45.1965(9)  1_555 1_555   2_655
	O3        O4        Mn1        134.5299(11)  1_555 1_555   1_555
	O3        O4        O3         90.000    4_765 1_555   1_555
	O3        O4        O5         60.9102(19)  4_765 1_555   2_755
	O3        O4        O5         93.091(2)  4_765 1_555   4_655
	O3        O4        O3         147.3483(12)  4_765 1_555   4_665
	O3        O4        Ca0        71.137(15)  4_765 1_555   2_745
	O3        O4        O5         142.8739(6)  4_765 1_555   1_555
	O3        O4        O3         90.000    4_765 1_555   1_545
	O3        O4        Ca0        134.43(4)  4_765 1_555   1_555
	O3        O4        Te2        44.8035(9)  4_765 1_555   2_655
	O3        O4        Mn1        126.8860(12)  4_765 1_555   1_555
	O5        O4        O3         58.9747(11)  3_554 1_555   4_765
	O5        O4        O3         60.4818(10)  3_554 1_555   1_555
	O5        O4        O5         90.1815(12)  3_554 1_555   2_755
	O5        O4        O5         69.9983(18)  3_554 1_555   4_655
	O5        O4        O3         93.19173(10)  3_554 1_555   4_665
	O5        O4        Ca0        129.939(11)  3_554 1_555   2_745
	O5        O4        O5         153.5704(8)  3_554 1_555   1_555
	O5        O4        O3         119.5182(10)  3_554 1_555   1_545
	O5        O4        Ca0        115.35(7)  3_554 1_555   1_555
	O5        O4        Te2        44.5289(6)  3_554 1_555   2_655
	O5        O4        Mn1        112.6569(8)  3_554 1_555   1_555
	Ca0       O4        O5         50.53(6)  3_554 1_555   3_554
	Ca0       O4        O3         46.46(2)  3_554 1_555   4_765
	Ca0       O4        O3         109.93(6)  3_554 1_555   1_555
	Ca0       O4        O5         107.08(3)  3_554 1_555   2_755
	Ca0       O4        O5         46.65(2)  3_554 1_555   4_655
	Ca0       O4        O3         103.585(5)  3_554 1_555   4_665
	Ca0       O4        Ca0        92.297(10)  3_554 1_555   2_745
	Ca0       O4        O5         126.72(5)  3_554 1_555   1_555
	Ca0       O4        O3         70.07(6)  3_554 1_555   1_545
	Ca0       O4        Ca0        165.235(8)  3_554 1_555   1_555
	Ca0       O4        Te2        75.60(5)  3_554 1_555   2_655
	Ca0       O4        Mn1        85.90(4)  3_554 1_555   1_555
	O3        O4        Ca0        142.55(2)  2_745 1_555   3_554
	O3        O4        O5         140.7256(12)  2_745 1_555   3_554
	O3        O4        O3         102.978(2)  2_745 1_555   4_765
	O3        O4        O3         87.20774(10)  2_745 1_555   1_555
	O3        O4        O5         52.3284(3)  2_745 1_555   2_755
	O3        O4        O5         149.2295(6)  2_745 1_555   4_655
	O3        O4        O3         109.6336(9)  2_745 1_555   4_665
	O3        O4        Ca0        52.44(4)  2_745 1_555   2_745
	O3        O4        O5         60.8638(18)  2_745 1_555   1_555
	O3        O4        O3         92.79226(10)  2_745 1_555   1_545
	O3        O4        Ca0        49.98(3)  2_745 1_555   1_555
	O3        O4        Te2        97.1817(14)  2_745 1_555   2_655
	O3        O4        Mn1        105.8842(8)  2_745 1_555   1_555
	Ca0       O4        O3         134.28(4)  4_665 1_555   2_745
	Ca0       O4        Ca0        80.567(11)  4_665 1_555   3_554
	Ca0       O4        O5         44.066(9)  4_665 1_555   3_554
	Ca0       O4        O3         103.041(8)  4_665 1_555   4_765
	Ca0       O4        O3         55.97(5)  4_665 1_555   1_555
	Ca0       O4        O5         113.49(5)  4_665 1_555   2_755
	Ca0       O4        O5         64.33(5)  4_665 1_555   4_655
	Ca0       O4        O3         51.67(3)  4_665 1_555   4_665
	Ca0       O4        Ca0        172.8278(13)  4_665 1_555   2_745
	Ca0       O4        O5         111.77(2)  4_665 1_555   1_555
	Ca0       O4        O3         124.03(5)  4_665 1_555   1_545
	Ca0       O4        Ca0        85.351(12)  4_665 1_555   1_555
	Ca0       O4        Te2        76.45(4)  4_665 1_555   2_655
	Ca0       O4        Mn1        87.15(4)  4_665 1_555   1_555
	Te2       O5        Mn1        150.4354(11)  1_655 1_555   1_555
	Ca0       O5        Te2        98.562(2)  2_645 1_555   1_655
	Ca0       O5        Mn1        110.771(3)  2_645 1_555   1_555
	Ca0       O5        Ca0        110.00(10)  1_555 1_555   2_645
	Ca0       O5        Te2        87.154(3)  1_555 1_555   1_655
	Ca0       O5        Mn1        86.274(4)  1_555 1_555   1_555
	O4        O5        Ca0        50.225(12)  1_555 1_555   1_555
	O4        O5        Ca0        141.24(5)  1_555 1_555   2_645
	O4        O5        Te2        111.288(2)  1_555 1_555   1_655
	O4        O5        Mn1        45.2197(11)  1_555 1_555   1_555
	O3        O5        O4         59.7179(16)  1_545 1_555   1_555
	O3        O5        Ca0        109.297(13)  1_545 1_555   1_555
	O3        O5        Ca0        131.12(6)  1_545 1_555   2_645
	O3        O5        Te2        111.288(2)  1_545 1_555   1_655
	O3        O5        Mn1        45.2197(11)  1_545 1_555   1_555
	O3        O5        O3         89.376(2)  4_665 1_555   1_545
	O3        O5        O4         60.171(2)  4_665 1_555   1_555
	O3        O5        Ca0        65.426(7)  4_665 1_555   1_555
	O3        O5        Ca0        81.61(4)  4_665 1_555   2_645
	O3        O5        Te2        150.3448(8)  4_665 1_555   1_655
	O3        O5        Mn1        44.1562(10)  4_665 1_555   1_555
	O4        O5        O3         58.4987(16)  4_655 1_555   4_665
	O4        O5        O3         60.171(2)  4_655 1_555   1_545
	O4        O5        O4         89.376(2)  4_655 1_555   1_555
	O4        O5        Ca0        122.435(3)  4_655 1_555   1_555
	O4        O5        Ca0        74.59(4)  4_655 1_555   2_645
	O4        O5        Te2        150.3448(8)  4_655 1_555   1_655
	O4        O5        Mn1        44.1562(10)  4_655 1_555   1_555
	O4        O5        O4         113.7877(14)  2_745 1_555   4_655
	O4        O5        O3         153.4228(3)  2_745 1_555   4_665
	O4        O5        O3         66.8078(18)  2_745 1_555   1_545
	O4        O5        O4         96.1117(19)  2_745 1_555   1_555
	O4        O5        Ca0        110.113(13)  2_745 1_555   1_555
	O4        O5        Ca0        122.61(6)  2_745 1_555   2_645
	O4        O5        Te2        45.4675(6)  2_745 1_555   1_655
	O4        O5        Mn1        111.1303(6)  2_745 1_555   1_555
	O3        O5        O4         60.3214(18)  2_745 1_555   2_745
	O3        O5        O4         153.4228(3)  2_745 1_555   4_655
	O3        O5        O3         113.7877(14)  2_745 1_555   4_665
	O3        O5        O3         96.1117(19)  2_745 1_555   1_545
	O3        O5        O4         66.8078(18)  2_745 1_555   1_555
	O3        O5        Ca0        50.560(11)  2_745 1_555   1_555
	O3        O5        Ca0        131.47(5)  2_745 1_555   2_645
	O3        O5        Te2        45.4675(6)  2_745 1_555   1_655
	O3        O5        Mn1        111.1303(6)  2_745 1_555   1_555
	O3        O5        O3         89.8185(12)  3_555 1_555   2_745
	O3        O5        O4         60.1150(10)  3_555 1_555   2_745
	O3        O5        O4         110.0017(18)  3_555 1_555   4_655
	O3        O5        O3         145.4392(11)  3_555 1_555   4_665
	O3        O5        O3         113.8839(18)  3_555 1_555   1_545
	O3        O5        O4         153.5704(8)  3_555 1_555   1_555
	O3        O5        Ca0        123.594(4)  3_555 1_555   1_555
	O3        O5        Ca0        63.86(4)  3_555 1_555   2_645
	O3        O5        Te2        44.3509(13)  3_555 1_555   1_655
	O3        O5        Mn1        150.0716(10)  3_555 1_555   1_555
	O4        O5        O3         59.0364(19)  3_555 1_555   3_555
	O4        O5        O3         60.1150(10)  3_555 1_555   2_745
	O4        O5        O4         89.8185(12)  3_555 1_555   2_745
	O4        O5        O4         145.4392(11)  3_555 1_555   4_655
	O4        O5        O3         110.0017(18)  3_555 1_555   4_665
	O4        O5        O3         153.5704(8)  3_555 1_555   1_545
	O4        O5        O4         113.8839(18)  3_555 1_555   1_555
	O4        O5        Ca0        65.992(8)  3_555 1_555   1_555
	O4        O5        Ca0        71.36(5)  3_555 1_555   2_645
	O4        O5        Te2        44.3509(13)  3_555 1_555   1_655
	O4        O5        Mn1        150.0716(10)  3_555 1_555   1_555
	Ca0       O5        O4         122.989(3)  1_545 1_555   3_555
	Ca0       O5        O3         64.920(5)  1_545 1_555   3_555
	Ca0       O5        O3         111.948(9)  1_545 1_555   2_745
	Ca0       O5        O4         52.141(8)  1_545 1_555   2_745
	Ca0       O5        O4         64.497(5)  1_545 1_555   4_655
	Ca0       O5        O3         121.990(2)  1_545 1_555   4_665
	Ca0       O5        O3         51.930(9)  1_545 1_555   1_545
	Ca0       O5        O4         111.217(10)  1_545 1_555   1_555
	Ca0       O5        Ca0        156.340(4)  1_545 1_555   1_555
	Ca0       O5        Ca0        93.60(9)  1_545 1_555   2_645
	Ca0       O5        Te2        87.656(3)  1_545 1_555   1_655
	Ca0       O5        Mn1        86.932(3)  1_545 1_555   1_555
#######	End powder crystal structure	#######


#######	Begin powder diffraction data	#######
data_Ca2_Mn_Te_O6_raw.xy_0
_pd_block_id	Ca2_Mn_Te_O6_raw.xy_0

_pd_calc_method	Rietveld
_computing_cell_refinement	'Topas 6'
_computing_structure_refinement	'Topas 6'
_diffrn_radiation_probe	x-ray
_diffrn_radiation_wavelength	1.540560000
_refine_ls_goodness_of_fit_all	7.33449
_pd_proc_ls_prof_R_factor	0.14125
_pd_proc_ls_prof_wR_factor	0.19071
_pd_proc_ls_prof_wR_expected	0.02600
loop_
	_pd_phase_id
	_pd_phase_block_id
	_pd_phase_mass_%
1	Ca2MnTeO6_0	100
loop_
	_refln_index_h
	_refln_index_k
	_refln_index_l
	_pd_refln_phase_id
	_refln_d_spacing
	_refln_F_squared_calc
	_refln_F_squared_meas
   0    0    2 1    3.917837    42.898071    42.532485
   0    0    4 1    1.958919   205.958973   232.681883
   0    0    6 1    1.305946     7.919254     8.514870
   0    0    8 1    0.979459    50.940788    53.678004
   0    1    1 1    4.587301    30.105480    41.320179
   0    1    2 1    3.221072     0.147264     0.153554
   0    1    3 1    2.371434    13.781337    14.512488
   0    1    4 1    1.851124     0.369901     0.357628
   0    1    5 1    1.510280    33.699904    45.513087
   0    1    6 1    1.272493     0.496405     0.428143
   0    1    7 1    1.098100     5.761529     5.499873
   0    1    8 1    0.965107     0.572308     0.623889
   0    1    9 1    0.860504    29.195082    30.505199
   0    2    0 1    2.829162   132.359592   128.830482
   0    2    1 1    2.661021    14.489252     8.661325
   0    2    2 1    2.293650     5.615695     6.300325
   0    2    3 1    1.919106    10.294048    12.998050
   0    2    4 1    1.610536   239.576352   278.791285
   0    2    5 1    1.370872     6.017558     6.303189
   0    2    6 1    1.185717    38.505084    45.398806
   0    2    7 1    1.040871     3.367945     4.514248
   0    2    8 1    0.925562   151.403178   169.348659
   0    2    9 1    0.832121     1.888449     1.873670
   0    3    1 1    1.833733    32.199219    25.866332
   0    3    2 1    1.699430     0.592592     0.696995
   0    3    3 1    1.529100    20.104496    21.419607
   0    3    4 1    1.358691     1.733925     1.502274
   0    3    5 1    1.205358    21.389132    20.737037
   0    3    6 1    1.073691     2.705223     2.526414
   0    3    7 1    0.962617     6.961277     8.479533
   0    3    8 1    0.869241     3.462875     3.328830
   0    4    0 1    1.414581   127.278901   115.445724
   0    4    1 1    1.392078    19.518924    24.672841
   0    4    2 1    1.330511    87.565320   113.411183
   0    4    3 1    1.243868    15.727926    18.044864
   0    4    4 1    1.146825   143.014171   139.697909
   0    4    5 1    1.050063    10.990568    13.862269
   0    4    6 1    0.959553    32.522859    35.014911
   0    4    7 1    0.877796     7.151867     7.838493
   0    5    1 1    1.120044     8.847815    11.336256
   0    5    2 1    1.087218     0.502612     0.575757
   0    5    3 1    1.038388    12.927348    14.661860
   0    5    4 1    0.979903     1.710040     1.764815
   0    5    5 1    0.917460    10.464800    12.604591
   0    5    6 1    0.855237     3.118723     3.402327
   0    6    0 1    0.943054    18.705013    20.037851
   0    6    1 1    0.936297    11.487667    12.369836
   0    6    2 1    0.916866    46.463736    56.282962
   0    6    3 1    0.887007    10.112952     9.879833
   0    6    4 1    0.849715    45.788565    45.183855
   1    0  -10 1    0.860220     0.128278     0.133581
   1    0   -8 1    1.097361    11.894600    11.259078
   1    0   -6 1    1.507970     0.688881     1.014299
   1    0   -4 1    2.361033     2.775658     2.325738
   1    0   -2 1    4.502983     5.800480     9.894068
   1    0    0 1    4.492699    12.763180    20.874216
   1    0    2 1    2.356583    65.081669    53.030869
   1    0    4 1    1.506036     9.910588    14.965126
   1    0    6 1    1.096317    39.179339    37.329350
   1    0    8 1    0.859573     0.439860     0.456154
   1    1  -10 1    0.850448     0.444361     0.442607
   1    1   -9 1    0.950935    44.376154    47.647729
   1    1   -8 1    1.077289     0.855819     0.857238
   1    1   -7 1    1.240310   139.097961   174.553586
   1    1   -6 1    1.457112     1.654145     1.473898
   1    1   -5 1    1.755412    79.174990    80.497199
   1    1   -4 1    2.178950     3.050577     5.105200
   1    1   -3 1    2.781001   301.883963   279.917503
   1    1   -2 1    3.523419     4.648175     4.617551
   1    1   -1 1    3.941260   104.297266    93.615311
   1    1    0 1    3.518486     4.783749     4.523879
   1    1    1 1    2.776152   305.885164   281.105943
   1    1    2 1    2.175451     3.334669     5.945425
   1    1    3 1    1.752971    54.289779    59.582257
   1    1    4 1    1.455367     1.934272     1.713718
   1    1    5 1    1.239018   153.425490   200.907248
   1    1    6 1    1.076301     1.085372     1.115441
   1    1    7 1    0.950158    30.178941    33.748498
   1    1    8 1    0.849823     0.626859     0.619477
   1    2  -10 1    0.823017     2.089526     2.094595
   1    2   -9 1    0.913040     2.296630     2.417551
   1    2   -8 1    1.023096    52.315808    47.949441
   1    2   -7 1    1.159550     2.027017     1.793214
   1    2   -6 1    1.330741    28.546160    37.291264
   1    2   -5 1    1.546310     1.592038     1.411699
   1    2   -4 1    1.812724    76.132373    48.304807
   1    2   -3 1    2.117613     0.816990     1.635715
   1    2   -2 1    2.395580    49.897127    46.944515
   1    2   -1 1    2.515151     0.092267     0.142990
   1    2    0 1    2.394027     5.807540     5.388729
   1    2    1 1    2.115470     0.120224     0.238030
   1    2    2 1    1.810708    15.797842    10.219883
   1    2    3 1    1.544642     0.663053     0.597758
   1    2    4 1    1.329411     1.627420     2.098598
   1    2    5 1    1.158494     1.175548     1.035964
   1    2    6 1    1.022249    21.650742    20.425500
   1    2    7 1    0.912352     1.585019     1.611713
   1    2    8 1    0.822450     0.286100     0.286930
   1    3   -9 1    0.858844    45.572698    47.392839
   1    3   -8 1    0.948504     4.991418     5.715615
   1    3   -7 1    1.054146    79.355674   102.077683
   1    3   -6 1    1.177806     8.504717    11.162365
   1    3   -5 1    1.319460    67.370611    78.004687
   1    3   -4 1    1.473630    13.582587    14.170803
   1    3   -3 1    1.623989   138.585127   176.955228
   1    3   -2 1    1.739667    18.292849    26.566318
   1    3   -1 1    1.783875    96.925823   112.397251
   1    3    0 1    1.739072    18.832974    27.229428
   1    3    1 1    1.623022   173.632797   224.131355
   1    3    2 1    1.472546    14.854423    16.036058
   1    3    3 1    1.318423    78.854220    91.510288
   1    3    4 1    1.176884     9.950010    14.254024
   1    3    5 1    1.053352   112.828719   136.463473
   1    3    6 1    0.947830     6.332407     7.164744
   1    3    7 1    0.858271    41.253505    43.299552
   1    4   -8 1    0.867056     8.775587     8.626461
   1    4   -7 1    0.945525     4.074588     4.233217
   1    4   -6 1    1.031696     2.371711     2.057281
   1    4   -5 1    1.122939     2.714110     2.866185
   1    4   -4 1    1.213455     4.447253     3.948345
   1    4   -3 1    1.293361     1.196443     1.156233
   1    4   -2 1    1.349556    13.332529    15.306297
   1    4   -1 1    1.369884     0.126690     0.138020
   1    4    0 1    1.349279    15.844202    18.052143
   1    4    1 1    1.292872     0.176135     0.173297
   1    4    2 1    1.212850    49.840167    43.306867
   1    4    3 1    1.122299     1.131052     1.246453
   1    4    4 1    1.031076    20.063210    16.943240
   1    4    5 1    0.944953     2.364188     2.460110
   1    4    6 1    0.866540    38.130886    37.819515
   1    5   -7 1    0.845260    50.920942    53.065488
   1    5   -6 1    0.905134     9.253621     9.124350
   1    5   -5 1    0.964876    97.276842   107.505370
   1    5   -4 1    1.020497    12.658379    13.063239
   1    5   -3 1    1.066664    67.855127    71.920441
   1    5   -2 1    1.097536    15.291868    14.505962
   1    5   -1 1    1.108386    99.517371    92.157352
   1    5    0 1    1.097386    15.746686    14.909798
   1    5    1 1    1.066390    54.524645    57.547245
   1    5    2 1    1.020137    13.850697    14.431635
   1    5    3 1    0.964470    64.283548    72.677070
   1    5    4 1    0.904715    10.831774    10.610450
   1    5    5 1    0.844851    39.580786    41.422880
   1    6   -5 1    0.839861     1.882474     1.894901
   1    6   -4 1    0.875777    17.147705    18.924467
   1    6   -3 1    0.904438     0.746277     0.728370
   1    6   -2 1    0.923029    23.864204    28.242725
   1    6   -1 1    0.929455     0.075517     0.075091
   1    6    0 1    0.922940     7.117126     8.424739
   1    6    1 1    0.904271     0.109896     0.107075
   1    6    2 1    0.875550     7.612807     8.346889
   1    6    3 1    0.839593     0.784797     0.788778
   2    0  -10 1    0.923260    79.493331    93.981249
   2    0   -8 1    1.180516    20.453743    25.160117
   2    0   -6 1    1.596654   128.227237   156.591068
   2    0   -4 1    2.251491     3.993351     4.375616
   2    0   -2 1    2.746461   124.159384   126.187322
   2    0    0 1    2.246349     2.746934     3.111334
   2    0    2 1    1.592986   105.642718   126.812816
   2    0    4 1    1.178291    17.960951    22.445342
   2    0    6 1    0.921840    72.030770    84.917043
   2    1  -11 1    0.821707    38.889102    38.938491
   2    1  -10 1    0.911209     0.733173     0.721888
   2    1   -9 1    1.020462     0.373012     0.385335
   2    1   -8 1    1.155633     0.688016     0.606387
   2    1   -7 1    1.324699    57.536021    59.126951
   2    1   -6 1    1.536648     0.596652     0.636911
   2    1   -5 1    1.796885     1.338396     1.055320
   2    1   -4 1    2.091963     0.377730     0.545544
   2    1   -3 1    2.357891    77.665148    63.601852
   2    1   -2 1    2.470784     0.100207     0.200782
   2    1   -1 1    2.354934     7.426829     6.030478
   2    1    0 1    2.087836     0.001122     0.001586
   2    1    1 1    1.792963    37.492406    34.974070
   2    1    2 1    1.533378     0.093017     0.093426
   2    1    3 1    1.322079    16.700741    17.776885
   2    1    4 1    1.153545     0.224874     0.197106
   2    1    5 1    1.018785     9.461081     9.917048
   2    1    6 1    0.909844     0.345215     0.344307
   2    1    7 1    0.820581    19.357301    19.374432
   2    2  -10 1    0.877706    72.652508    79.749806
   2    2   -9 1    0.974047     2.342120     2.199730
   2    2   -8 1    1.089475    20.457440    23.757018
   2    2   -7 1    1.227610     4.286542     4.158639
   2    2   -6 1    1.390501   216.559055   245.398311
   2    2   -5 1    1.574433     7.309600     5.635805
   2    2   -4 1    1.761710    79.405986    81.088909
   2    2   -3 1    1.911907    10.356100    12.334319
   2    2   -2 1    1.970630   450.328018   433.830353
   2    2   -1 1    1.910329    10.980243    12.745744
   2    2    0 1    1.759243    98.300376    95.799127
   2    2    1 1    1.571793     8.752428     6.693133
   2    2    2 1    1.388076   230.306674   270.813138
   2    2    3 1    1.225525     5.881449     5.591858
   2    2    4 1    1.087725    30.882064    35.818354
   2    2    5 1    0.972588     3.787823     3.488863
   2    2    6 1    0.876486    71.368710    79.561640
   2    3  -10 1    0.829240     4.505491     4.683407
   2    3   -9 1    0.909028     3.743193     3.828247
   2    3   -8 1    1.000671     3.904387     3.488516
   2    3   -7 1    1.104499    37.834563    37.013338
   2    3   -6 1    1.218635     3.000593     2.736742
   2    3   -5 1    1.336804     3.060112     3.682134
   2    3   -4 1    1.445828     1.702221     1.630477
   2    3   -3 1    1.525451    34.026982    42.206598
   2    3   -2 1    1.554783     0.430995     0.385691
   2    3   -1 1    1.524650     3.772455     4.765699
   2    3    0 1    1.444463     0.005057     0.004917
   2    3    1 1    1.335187    23.270125    30.899385
   2    3    2 1    1.217002     0.468193     0.442671
   2    3    3 1    1.102980    11.550621    11.310652
   2    3    4 1    0.999314     1.277064     1.142712
   2    3    5 1    0.907841    14.135835    14.758531
   2    3    6 1    0.828211     2.122192     2.255841
   2    4   -9 1    0.836592     5.118299     5.219329
   2    4   -8 1    0.906362    50.788665    51.287891
   2    4   -7 1    0.981353     8.346515     8.007117
   2    4   -6 1    1.058806   101.915886   112.119095
   2    4   -5 1    1.133571    12.338028    12.869570
   2    4   -4 1    1.197790    35.792121    50.868756
   2    4   -3 1    1.241902    15.849834    22.121890
   2    4   -2 1    1.257575    80.971348    96.446660
   2    4   -1 1    1.241469    16.811409    23.050962
   2    4    0 1    1.197014    33.894785    47.926756
   2    4    1 1    1.132585    14.787026    14.583109
   2    4    2 1    1.057735    80.411142    93.437412
   2    4    3 1    0.980287    11.463119    11.580700
   2    4    4 1    0.905354    51.822856    51.286199
   2    4    5 1    0.835667     8.282571     8.609174
   2    5   -7 1    0.870564    15.406762    14.716530
   2    5   -6 1    0.923275     3.191223     3.772463
   2    5   -5 1    0.971596    10.748783     9.923125
   2    5   -4 1    1.011126     1.607428     1.506516
   2    5   -3 1    1.037243    30.130868    33.924910
   2    5   -2 1    1.046322     0.387287     0.468098
   2    5   -1 1    1.036991    13.459023    15.188098
   2    5    0 1    1.010659     0.004779     0.004467
   2    5    1 1    0.970975    27.257573    25.174480
   2    5    2 1    0.922564     0.498390     0.589925
   2    5    3 1    0.869819     7.311407     7.012032
   2    6   -5 1    0.844282     8.500817     8.919202
   2    6   -4 1    0.869833    84.445126    80.983121
   2    6   -3 1    0.886293    10.203782     9.978767
   2    6   -2 1    0.891937    70.831412    68.927736
   2    6   -1 1    0.886136    10.825732    10.600089
   2    6    0 1    0.869536    96.214734    92.373843
   2    6    1 1    0.843874    10.194453    10.704295
   3    0  -10 1    0.956079    22.545819    22.227236
   3    0   -8 1    1.192020    12.113182    13.210716
   3    0   -6 1    1.500994    33.279274    37.007012
   3    0   -4 1    1.783906    22.465417    26.044700
   3    0   -2 1    1.781984     5.696049     6.675605
   3    0    0 1    1.497566     7.493771     7.106747
   3    0    2 1    1.189159     0.291407     0.330261
   3    0    4 1    0.954011     8.003956     7.658137
   3    1  -11 1    0.854610    35.218980    37.842123
   3    1  -10 1    0.942716     0.521544     0.557361
   3    1   -9 1    1.046087   114.687398   133.273712
   3    1   -8 1    1.166418     0.979115     0.910204
   3    1   -7 1    1.303258    39.946689    38.583706
   3    1   -6 1    1.450816     1.680172     1.493952
   3    1   -5 1    1.593148   229.184964   274.819710
   3    1   -4 1    1.701355     2.405959     2.752670
   3    1   -3 1    1.742039    36.666802    53.019547
   3    1   -2 1    1.699688     2.629725     3.086874
   3    1   -1 1    1.590413   268.854248   343.155930
   3    1    0 1    1.447719     2.209509     2.047981
   3    1    1 1    1.300266    26.982771    30.306225
   3    1    2 1    1.163737     1.584815     1.437809
   3    1    3 1    1.043766   165.896760   203.313435
   3    1    4 1    0.940734     1.086778     1.113202
   3    1    5 1    0.852922    16.607897    17.143497
   3    2  -11 1    0.826787     2.688807     2.823105
   3    2  -10 1    0.905757    14.802493    14.752607
   3    2   -9 1    0.996257     2.453877     2.201600
   3    2   -8 1    1.098498     0.866705     0.829724
   3    2   -7 1    1.210488     2.037133     2.058224
   3    2   -6 1    1.325939     4.739113     5.609890
   3    2   -5 1    1.431945     1.333689     1.158870
   3    2   -4 1    1.508979     8.971129    12.786608
   3    2   -3 1    1.537147     0.500968     0.535360
   3    2   -2 1    1.507815    13.757615    20.339966
   3    2   -1 1    1.429958     0.030978     0.026861
   3    2    0 1    1.323575    53.924066    53.244433
   3    2    1 1    1.208090     0.086875     0.086822
   3    2    2 1    1.096257    20.047824    19.140206
   3    2    3 1    0.994251     0.423422     0.383292
   3    2    4 1    0.903999    47.886168    46.573750
   3    2    5 1    0.825258     0.842870     0.856753
   3    3  -10 1    0.852774     3.176798     3.267256
   3    3   -9 1    0.927000    89.657017    94.365415
   3    3   -8 1    1.007648     5.535323     4.955718
   3    3   -7 1    1.091979    58.185014    58.843543
   3    3   -6 1    1.174473     8.654352    12.184418
   3    3   -5 1    1.246245   153.891165   150.078211
   3    3   -4 1    1.296037    11.625335    11.279211
   3    3   -3 1    1.313753    52.923857    56.734014
   3    3   -2 1    1.295300    12.711227    12.031694
   3    3   -1 1    1.244934   150.570853   150.116040
   3    3    0 1    1.172829    11.391199    13.190390
   3    3    1 1    1.090218    30.734785    35.740410
   3    3    2 1    1.005918     8.968018     7.974528
   3    3    3 1    0.925384    99.507790   112.007138
   3    3    4 1    0.851306     6.623528     6.654685
   3    4   -9 1    0.850538     5.313140     5.297435
   3    4   -8 1    0.911537    29.802660    29.498291
   3    4   -7 1    0.972540     3.998317     3.683012
   3    4   -6 1    1.029454    26.539779    21.809265
   3    4   -5 1    1.076764     2.375005     2.420781
   3    4   -4 1    1.108394    33.725219    31.242150
   3    4   -3 1    1.119414     0.856881     1.053578
   3    4   -2 1    1.107932     8.325049     7.667960
   3    4   -1 1    1.075919     0.055208     0.056635
   3    4    0 1    1.028346    12.127435    10.347111
   3    4    1 1    0.971295     0.170701     0.157639
   3    4    2 1    0.910256     1.199189     1.185131
   3    4    3 1    0.849289     0.917573     0.900691
   3    5   -8 1    0.820716     6.608325     6.612335
   3    5   -7 1    0.864394    48.452269    51.034661
   3    5   -6 1    0.903619     9.434024     9.171708
   3    5   -5 1    0.935109    53.751004    60.699696
   3    5   -4 1    0.955602    11.850413    11.484309
   3    5   -3 1    0.962637    60.454067    73.635494
   3    5   -2 1    0.955306    12.962472    12.456343
   3    5   -1 1    0.934555    72.188888    81.631389
   3    5    0 1    0.902869    12.428876    12.121359
   3    5    1 1    0.863519    59.812711    64.067921
   3    5    2 1    0.819780    10.715882    10.753773
   3    6   -5 1    0.820010     1.694975     1.699489
   3    6   -4 1    0.833724    14.537877    15.275249
   3    6   -3 1    0.838384     0.595630     0.597913
   3    6   -2 1    0.833527     6.533937     6.823427
   3    6   -1 1    0.819636     0.039421     0.039583
   4    0  -10 1    0.947488    11.455324    12.820832
   4    0   -8 1    1.125746    66.064957    64.041067
   4    0   -6 1    1.296915    33.878875    34.528731
   4    0   -4 1    1.373230   130.822890   127.141460
   4    0   -2 1    1.294947    41.055616    38.637515
   4    0    0 1    1.123175    88.325918    92.297478
   4    0    2 1    0.945189    14.154978    14.694846
   4    1  -11 1    0.858620     0.153928     0.160525
   4    1  -10 1    0.934477     0.731877     0.827296
   4    1   -9 1    1.017213    53.385654    50.956464
   4    1   -8 1    1.104106     0.620339     0.591585
   4    1   -7 1    1.189505     0.678610     0.751435
   4    1   -6 1    1.264134     0.433313     0.388037
   4    1   -5 1    1.316065    45.795694    53.866709
   4    1   -4 1    1.334492     0.202243     0.276332
   4    1   -3 1    1.315035     4.530800     5.176609
   4    1   -2 1    1.262312     0.037997     0.036533
   4    1   -1 1    1.187229    22.214213    27.723194
   4    1    0 1    1.101680     0.002074     0.002120
   4    1    1 1    1.014842    14.468995    13.476888
   4    1    2 1    0.932271     0.058437     0.063268
   4    1    3 1    0.856623     7.348642     8.085604
   4    2  -11 1    0.830416     1.323034     1.328463
   4    2  -10 1    0.898442    52.897522    45.178166
   4    2   -9 1    0.971219     2.421319     2.236141
   4    2   -8 1    1.045982   112.088638   128.329827
   4    2   -7 1    1.117717     3.884359     4.003983
   4    2   -6 1    1.178946    32.865568    39.366059
   4    2   -5 1    1.220729     5.333747     4.849113
   4    2   -4 1    1.235392    91.220871   140.118092
   4    2   -3 1    1.219908     6.020601     5.409604
   4    2   -2 1    1.177467    22.300005    30.309396
   4    2   -1 1    1.115828     5.640935     5.296215
   4    2    0 1    1.043918    90.737049   109.875614
   4    2    1 1    0.969155     4.669551     4.304962
   4    2    2 1    0.896482    34.299753    28.347809
   4    2    3 1    0.828610     3.615560     3.822423
   4    3  -10 1    0.846661     4.468562     4.497876
   4    3   -9 1    0.906728    32.263249    32.909926
   4    3   -8 1    0.966655     3.584514     3.490012
   4    3   -7 1    1.022421     3.376295     3.157168
   4    3   -6 1    1.068655     2.368097     2.327065
   4    3   -5 1    1.099480    37.652242    36.771724
   4    3   -4 1    1.110157     1.079744     1.068972
   4    3   -3 1    1.098879    10.375571     9.973626
   4    3   -2 1    1.067553     0.207784     0.220205
   4    3   -1 1    1.020974    23.469938    23.806857
   4    3    0 1    0.965025     0.011995     0.013141
   4    3    1 1    0.905048    13.105047    12.903841
   4    3    2 1    0.845020     0.357016     0.373103
   4    4   -9 1    0.834798     5.297485     5.598388
   4    4   -8 1    0.880855    63.014347    66.336992
   4    4   -7 1    0.922430     7.962790     9.421862
   4    4   -6 1    0.955954    75.392098    73.974718
   4    4   -5 1    0.977827    10.418824    11.493596
   4    4   -4 1    0.985315   106.684969   103.978698
   4    4   -3 1    0.977405    11.765004    12.967747
   4    4   -2 1    0.955165    89.685423    85.910375
   4    4   -1 1    0.921367    11.573912    13.579168
   4    4    0 1    0.879621    77.328648    82.480491
   4    4    1 1    0.833486    10.224856    10.662457
   4    5   -7 1    0.828639     6.475197     6.841702
   4    5   -6 1    0.852685     2.737547     2.809535
   4    5   -5 1    0.868100    12.653919    12.285030
   4    5   -4 1    0.873326     1.220071     1.207225
   4    5   -3 1    0.867804     5.065885     4.934570
   4    5   -2 1    0.852125     0.240344     0.243912
   4    5   -1 1    0.827868    10.715198    11.398433
   5    0  -10 1    0.900597     0.128744     0.122894
   5    0   -8 1    1.013536     6.949961     6.520506
   5    0   -6 1    1.088308     0.434007     0.502554
   5    0   -4 1    1.087580    11.506052    13.318248
   5    0   -2 1    1.011776     9.155213     8.622267
   5    0    0 1    0.898540    13.819377    11.868744
   5    1  -11 1    0.832536    98.399156    98.737785
   5    1  -10 1    0.889401     0.509715     0.510862
   5    1   -9 1    0.945694    23.970301    24.963976
   5    1   -8 1    0.997658     0.826877     0.742017
   5    1   -7 1    1.040409   161.373967   207.965930
   5    1   -6 1    1.068719     1.146287     1.120010
   5    1   -5 1    1.078446    19.220819    18.615753
   5    1   -4 1    1.068030     1.338473     1.384430
   5    1   -3 1    1.039138   171.057336   200.683539
   5    1   -2 1    0.995979     1.333573     1.197157
   5    1   -1 1    0.943788    12.813396    13.666891
   5    1    0 1    0.887420     1.185491     1.161427
   5    1    1 1    0.830586   123.479888   123.503021
   5    2  -10 1    0.858166    11.512077    12.112679
   5    2   -9 1    0.908398     2.121892     2.206098
   5    2   -8 1    0.954156    48.259963    46.075217
   5    2   -7 1    0.991348     1.494014     1.362732
   5    2   -6 1    1.015747    15.630179    14.542939
   5    2   -5 1    1.024087     0.790948     0.729546
   5    2   -4 1    1.015155    22.896271    21.329108
   5    2   -3 1    0.990249     0.242790     0.220986
   5    2   -2 1    0.952686     5.066130     5.021804
   5    2   -1 1    0.906708     0.008689     0.008858
   5    2    0 1    0.856386     3.904498     4.310697
   5    3   -9 1    0.854977    23.994269    26.010557
   5    3   -8 1    0.892796     4.952618     4.735810
   5    3   -7 1    0.923042   100.851206   119.350394
   5    3   -6 1    0.942640     6.705256     7.160006
   5    3   -5 1    0.949294    25.076131    28.704893
   5    3   -4 1    0.942167     7.831312     8.308978
   5    3   -3 1    0.922154   118.637911   140.195477
   5    3   -2 1    0.891592     7.991786     7.816020
   5    3   -1 1    0.853567    24.744371    25.965364
   5    4   -8 1    0.823888     4.728991     4.736189
   5    4   -7 1    0.847477     3.241553     3.200322
   5    4   -6 1    0.862569     4.613328     4.951802
   5    4   -5 1    0.867659     1.692117     1.650957
   5    4   -4 1    0.862207    12.580887    13.463171
   5    4   -3 1    0.846790     0.527024     0.528566
   5    4   -2 1    0.822941    16.236701    16.278478
   6    0  -10 1    0.830159    40.810868    41.249168
   6    0   -8 1    0.891953    12.837630    12.489685
   6    0   -6 1    0.915487    36.301015    43.043134
   6    0   -4 1    0.890992     5.833439     5.757969
   6    0   -2 1    0.828611    39.039765    41.272567
   6    1  -10 1    0.821366     0.614841     0.615158
   6    1   -9 1    0.854690     1.914324     2.060771
   6    1   -8 1    0.881073     0.451937     0.475991
   6    1   -7 1    0.898028    26.968819    22.572029
   6    1   -6 1    0.903735     0.265599     0.258185
   6    1   -5 1    0.897538     7.958887     6.563354
   6    1   -4 1    0.880147     0.107080     0.113282
   6    1   -3 1    0.853422    14.196095    14.843084
   6    1   -2 1    0.819867     0.017124     0.017179
   6    2   -9 1    0.826859     2.094173     2.201628
   6    2   -8 1    0.850677    46.163456    46.095683
   6    2   -7 1    0.865908     2.930892     2.953407
   6    2   -6 1    0.871020   114.566851   109.089245
   6    2   -5 1    0.865468     3.549602     3.624682
   6    2   -4 1    0.849844    51.469195    50.877268
   6    2   -3 1    0.825712     3.783744     3.883101
   6    3   -7 1    0.819269    15.183402    15.268463
   6    3   -6 1    0.823595     1.635414     1.637667
   6    3   -5 1    0.818896     6.773895     6.822251
loop_
	_pd_meas_2theta_scan
	_pd_proc_intensity_total
	_pd_proc_ls_weight
	_pd_calc_intensity_total
	_pd_proc_intensity_bkg_calc
   5.000000  2177.200000     0.000459  2181.991160     0.000000 
   5.020000  2146.900000     0.000466  2179.546868     0.000000 
   5.040000  2154.500000     0.000464  2177.105306     0.000000 
   5.060000  2139.300000     0.000467  2174.666471     0.000000 
   5.080000  2126.600000     0.000470  2172.230362     0.000000 
   5.100000  2129.300000     0.000470  2169.796977     0.000000 
   5.120000  2139.300000     0.000467  2167.366314     0.000000 
   5.140000  2109.000000     0.000474  2164.938369     0.000000 
   5.160000  2093.800000     0.000478  2162.513142     0.000000 
   5.180000  2083.000000     0.000480  2160.090630     0.000000 
   5.200000  2119.000000     0.000472  2157.670831     0.000000 
   5.220000  2109.000000     0.000474  2155.253743     0.000000 
   5.240000  2086.200000     0.000479  2152.839363     0.000000 
   5.260000  2065.000000     0.000484  2150.427690     0.000000 
   5.280000  2055.900000     0.000486  2148.018721     0.000000 
   5.300000  2048.600000     0.000488  2145.612455     0.000000 
   5.320000  2078.600000     0.000481  2143.208889     0.000000 
   5.340000  2071.000000     0.000483  2140.808021     0.000000 
   5.360000  2081.000000     0.000481  2138.409849     0.000000 
   5.380000  2101.400000     0.000476  2136.014371     0.000000 
   5.400000  2116.600000     0.000472  2133.621584     0.000000 
   5.420000  2101.400000     0.000476  2131.231488     0.000000 
   5.440000  2094.000000     0.000478  2128.844078     0.000000 
   5.460000  2071.000000     0.000483  2126.459354     0.000000 
   5.480000  2040.700000     0.000490  2124.077314     0.000000 
   5.500000  2061.000000     0.000485  2121.697955     0.000000 
   5.520000  2055.900000     0.000486  2119.321274     0.000000 
   5.540000  2063.400000     0.000485  2116.947271     0.000000 
   5.560000  2086.200000     0.000479  2114.575943     0.000000 
   5.580000  2071.000000     0.000483  2112.207287     0.000000 
   5.600000  2048.300000     0.000488  2109.841302     0.000000 
   5.620000  2063.400000     0.000485  2107.477985     0.000000 
   5.640000  2071.000000     0.000483  2105.117335     0.000000 
   5.660000  2098.000000     0.000477  2102.759350     0.000000 
   5.680000  2086.200000     0.000479  2100.404026     0.000000 
   5.700000  2071.000000     0.000483  2098.051363     0.000000 
   5.720000  2086.200000     0.000479  2095.701358     0.000000 
   5.740000  2109.000000     0.000474  2093.354009     0.000000 
   5.760000  2093.800000     0.000478  2091.009313     0.000000 
   5.780000  2071.000000     0.000483  2088.667270     0.000000 
   5.800000  2116.600000     0.000472  2086.327876     0.000000 
   5.820000  2124.100000     0.000471  2083.991130     0.000000 
   5.840000  2093.800000     0.000478  2081.657029     0.000000 
   5.860000  2101.400000     0.000476  2079.325572     0.000000 
   5.880000  2131.700000     0.000469  2076.996755     0.000000 
   5.900000  2124.100000     0.000471  2074.670579     0.000000 
   5.920000  2093.800000     0.000478  2072.347039     0.000000 
   5.940000  2139.300000     0.000467  2070.026134     0.000000 
   5.960000  2109.000000     0.000474  2067.707863     0.000000 
   5.980000  2093.800000     0.000478  2065.392222     0.000000 
   6.000000  2116.600000     0.000472  2063.079210     0.000000 
   6.020000  2131.700000     0.000469  2060.768824     0.000000 
   6.040000  2109.000000     0.000474  2058.461064     0.000000 
   6.060000  2063.400000     0.000485  2056.155926     0.000000 
   6.080000  2063.400000     0.000485  2053.853408     0.000000 
   6.100000  2078.600000     0.000481  2051.553509     0.000000 
   6.120000  2093.800000     0.000478  2049.256226     0.000000 
   6.140000  2071.000000     0.000483  2046.961558     0.000000 
   6.160000  2063.400000     0.000485  2044.669501     0.000000 
   6.180000  2086.200000     0.000479  2042.380055     0.000000 
   6.200000  2063.400000     0.000485  2040.093217     0.000000 
   6.220000  2033.100000     0.000492  2037.808984     0.000000 
   6.240000  2033.100000     0.000492  2035.527356     0.000000 
   6.260000  2048.300000     0.000488  2033.248329     0.000000 
   6.280000  2040.700000     0.000490  2030.971902     0.000000 
   6.300000  1995.200000     0.000501  2028.698073     0.000000 
   6.320000  1995.200000     0.000501  2026.426840     0.000000 
   6.340000  2010.300000     0.000497  2024.158200     0.000000 
   6.360000  2033.100000     0.000492  2021.892151     0.000000 
   6.380000  2010.300000     0.000497  2019.628692     0.000000 
   6.400000  2002.800000     0.000499  2017.367821     0.000000 
   6.420000  2025.500000     0.000494  2015.109534     0.000000 
   6.440000  2025.500000     0.000494  2012.853831     0.000000 
   6.460000  1987.600000     0.000503  2010.600709     0.000000 
   6.480000  1980.000000     0.000505  2008.350166     0.000000 
   6.500000  2040.700000     0.000490  2006.102201     0.000000 
   6.520000  2040.700000     0.000490  2003.856810     0.000000 
   6.540000  2005.900000     0.000499  2001.613992     0.000000 
   6.560000  1980.000000     0.000505  1999.373745     0.000000 
   6.580000  1998.600000     0.000500  1997.136067     0.000000 
   6.600000  2017.900000     0.000496  1994.900956     0.000000 
   6.620000  2033.100000     0.000492  1992.668410     0.000000 
   6.640000  2017.900000     0.000496  1990.438426     0.000000 
   6.660000  1991.400000     0.000502  1988.211003     0.000000 
   6.680000  1984.100000     0.000504  1985.986139     0.000000 
   6.700000  1998.600000     0.000500  1983.763831     0.000000 
   6.720000  2005.900000     0.000499  1981.544077     0.000000 
   6.740000  1991.400000     0.000502  1979.326877     0.000000 
   6.760000  1969.400000     0.000508  1977.112226     0.000000 
   6.780000  1962.400000     0.000510  1974.900124     0.000000 
   6.800000  1985.400000     0.000504  1972.690569     0.000000 
   6.820000  1991.400000     0.000502  1970.483557     0.000000 
   6.840000  1947.900000     0.000513  1968.279088     0.000000 
   6.860000  1933.400000     0.000517  1966.077159     0.000000 
   6.880000  1962.400000     0.000510  1963.877769     0.000000 
   6.900000  1969.700000     0.000508  1961.680914     0.000000 
   6.920000  1933.400000     0.000517  1959.486594     0.000000 
   6.940000  1955.200000     0.000511  1957.294805     0.000000 
   6.960000  1976.900000     0.000506  1955.105547     0.000000 
   6.980000  1939.400000     0.000516  1952.918817     0.000000 
   7.000000  1933.400000     0.000517  1950.734613     0.000000 
   7.020000  1955.200000     0.000511  1948.552933     0.000000 
   7.040000  1976.900000     0.000506  1946.373774     0.000000 
   7.060000  1947.900000     0.000513  1944.197136     0.000000 
   7.080000  1919.000000     0.000521  1942.023016     0.000000 
   7.100000  1962.400000     0.000510  1939.851411     0.000000 
   7.120000  1969.700000     0.000508  1937.682320     0.000000 
   7.140000  1933.400000     0.000517  1935.515741     0.000000 
   7.160000  1959.200000     0.000510  1933.351672     0.000000 
   7.180000  1969.700000     0.000508  1931.190111     0.000000 
   7.200000  1955.200000     0.000511  1929.031055     0.000000 
   7.220000  1926.200000     0.000519  1926.874503     0.000000 
   7.240000  1926.200000     0.000519  1924.720453     0.000000 
   7.260000  1897.200000     0.000527  1922.568902     0.000000 
   7.280000  1926.200000     0.000519  1920.419850     0.000000 
   7.300000  1940.700000     0.000515  1918.273292     0.000000 
   7.320000  1923.000000     0.000520  1916.129229     0.000000 
   7.340000  1919.000000     0.000521  1913.987657     0.000000 
   7.360000  1940.700000     0.000515  1911.848575     0.000000 
   7.380000  1947.900000     0.000513  1909.711980     0.000000 
   7.400000  1955.200000     0.000511  1907.577871     0.000000 
   7.420000  1911.700000     0.000523  1905.446246     0.000000 
   7.440000  1930.400000     0.000518  1903.317102     0.000000 
   7.460000  1933.400000     0.000517  1901.190438     0.000000 
   7.480000  1904.500000     0.000525  1899.066251     0.000000 
   7.500000  1919.000000     0.000521  1896.944540     0.000000 
   7.520000  1917.200000     0.000522  1894.825302     0.000000 
   7.540000  1896.600000     0.000527  1892.708536     0.000000 
   7.560000  1882.800000     0.000531  1890.594240     0.000000 
   7.580000  1880.700000     0.000532  1888.482411     0.000000 
   7.600000  1889.700000     0.000529  1886.373048     0.000000 
   7.620000  1896.600000     0.000527  1884.266148     0.000000 
   7.640000  1862.100000     0.000537  1882.161710     0.000000 
   7.660000  1869.100000     0.000535  1880.059732     0.000000 
   7.680000  1889.700000     0.000529  1877.960211     0.000000 
   7.700000  1875.900000     0.000533  1875.863145     0.000000 
   7.720000  1855.200000     0.000539  1873.768533     0.000000 
   7.740000  1834.500000     0.000545  1871.676373     0.000000 
   7.760000  1848.300000     0.000541  1869.586663     0.000000 
   7.780000  1869.000000     0.000535  1867.499400     0.000000 
   7.800000  1862.100000     0.000537  1865.414582     0.000000 
   7.820000  1847.300000     0.000541  1863.332209     0.000000 
   7.840000  1848.300000     0.000541  1861.252277     0.000000 
   7.860000  1862.100000     0.000537  1859.174784     0.000000 
   7.880000  1875.900000     0.000533  1857.099729     0.000000 
   7.900000  1869.000000     0.000535  1855.027110     0.000000 
   7.920000  1841.400000     0.000543  1852.956925     0.000000 
   7.940000  1862.100000     0.000537  1850.889171     0.000000 
   7.960000  1869.000000     0.000535  1848.823848     0.000000 
   7.980000  1841.400000     0.000543  1846.760952     0.000000 
   8.000000  1827.600000     0.000547  1844.700481     0.000000 
   8.020000  1834.500000     0.000545  1842.642435     0.000000 
   8.040000  1850.200000     0.000540  1840.586810     0.000000 
   8.060000  1855.200000     0.000539  1838.533605     0.000000 
   8.080000  1848.300000     0.000541  1836.482819     0.000000 
   8.100000  1820.700000     0.000549  1834.434448     0.000000 
   8.120000  1848.300000     0.000541  1832.388491     0.000000 
   8.140000  1855.200000     0.000539  1830.344946     0.000000 
   8.160000  1848.300000     0.000541  1828.303810     0.000000 
   8.180000  1841.400000     0.000543  1826.265083     0.000000 
   8.200000  1875.900000     0.000533  1824.228762     0.000000 
   8.220000  1862.100000     0.000537  1822.194846     0.000000 
   8.240000  1827.600000     0.000547  1820.163331     0.000000 
   8.260000  1820.700000     0.000549  1818.134216     0.000000 
   8.280000  1848.300000     0.000541  1816.107500     0.000000 
   8.300000  1862.100000     0.000537  1814.083180     0.000000 
   8.320000  1834.500000     0.000545  1812.061254     0.000000 
   8.340000  1808.300000     0.000553  1810.041720     0.000000 
   8.360000  1818.300000     0.000550  1808.024577     0.000000 
   8.380000  1830.500000     0.000546  1806.009822     0.000000 
   8.400000  1834.500000     0.000545  1803.997453     0.000000 
   8.420000  1801.700000     0.000555  1801.987469     0.000000 
   8.440000  1814.800000     0.000551  1799.979868     0.000000 
   8.460000  1838.500000     0.000544  1797.974647     0.000000 
   8.480000  1808.300000     0.000553  1795.971805     0.000000 
   8.500000  1788.600000     0.000559  1793.971339     0.000000 
   8.520000  1801.700000     0.000555  1791.973248     0.000000 
   8.540000  1827.900000     0.000547  1789.977530     0.000000 
   8.560000  1814.800000     0.000551  1787.984183     0.000000 
   8.580000  1808.300000     0.000553  1785.993204     0.000000 
   8.600000  1795.200000     0.000557  1784.004592     0.000000 
   8.620000  1775.500000     0.000563  1782.018346     0.000000 
   8.640000  1782.100000     0.000561  1780.034462     0.000000 
   8.660000  1808.300000     0.000553  1778.052939     0.000000 
   8.680000  1801.700000     0.000555  1776.073776     0.000000 
   8.700000  1782.100000     0.000561  1774.096969     0.000000 
   8.720000  1775.500000     0.000563  1772.122518     0.000000 
   8.740000  1782.100000     0.000561  1770.150420     0.000000 
   8.760000  1801.700000     0.000555  1768.180674     0.000000 
   8.780000  1811.700000     0.000552  1766.213277     0.000000 
   8.800000  1775.500000     0.000563  1764.248227     0.000000 
   8.820000  1762.400000     0.000567  1762.285523     0.000000 
   8.840000  1785.500000     0.000560  1760.325163     0.000000 
   8.860000  1795.200000     0.000557  1758.367144     0.000000 
   8.880000  1801.700000     0.000555  1756.411465     0.000000 
   8.900000  1807.700000     0.000553  1754.458123     0.000000 
   8.920000  1775.500000     0.000563  1752.507118     0.000000 
   8.940000  1755.900000     0.000570  1750.558446     0.000000 
   8.960000  1762.400000     0.000567  1748.612107     0.000000 
   8.980000  1782.100000     0.000561  1746.668098     0.000000 
   9.000000  1788.600000     0.000559  1744.726416     0.000000 
   9.020000  1750.300000     0.000571  1742.787061     0.000000 
   9.040000  1740.100000     0.000575  1740.850031     0.000000 
   9.060000  1744.100000     0.000573  1738.915322     0.000000 
   9.080000  1762.800000     0.000567  1736.982934     0.000000 
   9.100000  1769.000000     0.000565  1735.052865     0.000000 
   9.120000  1744.100000     0.000573  1733.125112     0.000000 
   9.140000  1756.600000     0.000569  1731.199674     0.000000 
   9.160000  1762.800000     0.000567  1729.276548     0.000000 
   9.180000  1746.000000     0.000573  1727.355734     0.000000 
   9.200000  1737.900000     0.000575  1725.437228     0.000000 
   9.220000  1739.900000     0.000575  1723.521030     0.000000 
   9.240000  1756.600000     0.000569  1721.607136     0.000000 
   9.260000  1737.900000     0.000575  1719.695546     0.000000 
   9.280000  1713.100000     0.000584  1717.786257     0.000000 
   9.300000  1700.700000     0.000588  1715.879267     0.000000 
   9.320000  1725.500000     0.000580  1713.974575     0.000000 
   9.340000  1719.300000     0.000582  1712.072178     0.000000 
   9.360000  1694.500000     0.000590  1710.172075     0.000000 
   9.380000  1675.900000     0.000597  1708.274263     0.000000 
   9.400000  1700.700000     0.000588  1706.378742     0.000000 
   9.420000  1706.900000     0.000586  1704.485508     0.000000 
   9.440000  1694.500000     0.000590  1702.594560     0.000000 
   9.460000  1675.900000     0.000597  1700.705897     0.000000 
   9.480000  1700.700000     0.000588  1698.819515     0.000000 
   9.500000  1705.000000     0.000587  1696.935414     0.000000 
   9.520000  1669.700000     0.000599  1695.053591     0.000000 
   9.540000  1688.300000     0.000592  1693.174045     0.000000 
   9.560000  1700.700000     0.000588  1691.296773     0.000000 
   9.580000  1706.900000     0.000586  1689.421774     0.000000 
   9.600000  1688.300000     0.000592  1687.549045     0.000000 
   9.620000  1675.900000     0.000597  1685.678586     0.000000 
   9.640000  1706.900000     0.000586  1683.810393     0.000000 
   9.660000  1719.300000     0.000582  1681.944466     0.000000 
   9.680000  1719.300000     0.000582  1680.080802     0.000000 
   9.700000  1688.300000     0.000592  1678.219399     0.000000 
   9.720000  1682.100000     0.000594  1676.360255     0.000000 
   9.740000  1706.900000     0.000586  1674.503369     0.000000 
   9.760000  1706.900000     0.000586  1672.648739     0.000000 
   9.780000  1694.500000     0.000590  1670.796362     0.000000 
   9.800000  1651.000000     0.000606  1668.946238     0.000000 
   9.820000  1663.400000     0.000601  1667.098363     0.000000 
   9.840000  1688.300000     0.000592  1665.252736     0.000000 
   9.860000  1657.200000     0.000603  1663.409356     0.000000 
   9.880000  1657.200000     0.000603  1661.568220     0.000000 
   9.900000  1663.400000     0.000601  1659.729326     0.000000 
   9.920000  1682.100000     0.000594  1657.892673     0.000000 
   9.940000  1669.700000     0.000599  1656.058258     0.000000 
   9.960000  1644.800000     0.000608  1654.226081     0.000000 
   9.980000  1651.000000     0.000606  1652.396138     0.000000 
  10.000000  1657.200000     0.000603  1650.568428     0.000000 
  10.020000  1688.300000     0.000592  1648.742949     0.000000 
  10.040000  1675.900000     0.000597  1646.919700     0.000000 
  10.060000  1651.000000     0.000606  1645.098678     0.000000 
  10.080000  1657.200000     0.000603  1643.279882     0.000000 
  10.100000  1682.100000     0.000594  1641.463309     0.000000 
  10.120000  1675.900000     0.000597  1639.648958     0.000000 
  10.140000  1700.700000     0.000588  1637.836827     0.000000 
  10.160000  1675.900000     0.000597  1636.026914     0.000000 
  10.180000  1657.200000     0.000603  1634.219217     0.000000 
  10.200000  1657.200000     0.000603  1632.413735     0.000000 
  10.220000  1669.700000     0.000599  1630.610465     0.000000 
  10.240000  1675.900000     0.000597  1628.809406     0.000000 
  10.260000  1663.400000     0.000601  1627.010555     0.000000 
  10.280000  1620.000000     0.000617  1625.213911     0.000000 
  10.300000  1626.200000     0.000615  1623.419472     0.000000 
  10.320000  1613.800000     0.000620  1621.627236     0.000000 
  10.340000  1638.600000     0.000610  1619.837202     0.000000 
  10.360000  1644.800000     0.000608  1618.049367     0.000000 
  10.380000  1628.000000     0.000614  1616.263729     0.000000 
  10.400000  1601.400000     0.000624  1614.480287     0.000000 
  10.420000  1610.000000     0.000621  1612.699039     0.000000 
  10.440000  1620.000000     0.000617  1610.919983     0.000000 
  10.460000  1589.000000     0.000629  1609.143118     0.000000 
  10.480000  1582.800000     0.000632  1607.368440     0.000000 
  10.500000  1601.400000     0.000624  1605.595949     0.000000 
  10.520000  1632.400000     0.000613  1603.825642     0.000000 
  10.540000  1601.400000     0.000624  1602.057518     0.000000 
  10.560000  1582.800000     0.000632  1600.291575     0.000000 
  10.580000  1601.400000     0.000624  1598.527811     0.000000 
  10.600000  1607.600000     0.000622  1596.766224     0.000000 
  10.620000  1632.400000     0.000613  1595.006813     0.000000 
  10.640000  1607.600000     0.000622  1593.249575     0.000000 
  10.660000  1582.800000     0.000632  1591.494508     0.000000 
  10.680000  1576.600000     0.000634  1589.741612     0.000000 
  10.700000  1601.400000     0.000624  1587.990883     0.000000 
  10.720000  1582.800000     0.000632  1586.242320     0.000000 
  10.740000  1570.300000     0.000637  1584.495922     0.000000 
  10.760000  1589.000000     0.000629  1582.751686     0.000000 
  10.780000  1607.600000     0.000622  1581.009611     0.000000 
  10.800000  1582.800000     0.000632  1579.269694     0.000000 
  10.820000  1576.600000     0.000634  1577.531935     0.000000 
  10.840000  1595.200000     0.000627  1575.796330     0.000000 
  10.860000  1589.800000     0.000629  1574.062879     0.000000 
  10.880000  1565.200000     0.000639  1572.331579     0.000000 
  10.900000  1547.600000     0.000646  1570.602428     0.000000 
  10.920000  1551.300000     0.000645  1568.875426     0.000000 
  10.940000  1559.300000     0.000641  1567.150569     0.000000 
  10.960000  1535.900000     0.000651  1565.427856     0.000000 
  10.980000  1554.300000     0.000643  1563.707286     0.000000 
  11.000000  1543.400000     0.000648  1561.988856     0.000000 
  11.020000  1530.000000     0.000654  1560.272565     0.000000 
  11.040000  1524.100000     0.000656  1558.558410     0.000000 
  11.060000  1550.400000     0.000645  1556.846390     0.000000 
  11.080000  1553.400000     0.000644  1555.136504     0.000000 
  11.100000  1530.000000     0.000654  1553.428749     0.000000 
  11.120000  1514.300000     0.000660  1551.723123     0.000000 
  11.140000  1518.300000     0.000659  1550.019625     0.000000 
  11.160000  1541.700000     0.000649  1548.318253     0.000000 
  11.180000  1535.900000     0.000651  1546.619004     0.000000 
  11.200000  1506.000000     0.000664  1544.921878     0.000000 
  11.220000  1506.600000     0.000664  1543.226873     0.000000 
  11.240000  1524.100000     0.000656  1541.533986     0.000000 
  11.260000  1530.000000     0.000654  1539.843215     0.000000 
  11.280000  1511.000000     0.000662  1538.154560     0.000000 
  11.300000  1489.000000     0.000672  1536.468018     0.000000 
  11.320000  1500.700000     0.000666  1534.783587     0.000000 
  11.340000  1519.300000     0.000658  1533.101265     0.000000 
  11.360000  1512.300000     0.000661  1531.421051     0.000000 
  11.380000  1500.700000     0.000666  1529.742943     0.000000 
  11.400000  1503.000000     0.000665  1528.066940     0.000000 
  11.420000  1501.000000     0.000666  1526.393038     0.000000 
  11.440000  1518.300000     0.000659  1524.721237     0.000000 
  11.460000  1530.000000     0.000654  1523.051534     0.000000 
  11.480000  1506.600000     0.000664  1521.383929     0.000000 
  11.500000  1494.800000     0.000669  1519.718418     0.000000 
  11.520000  1518.300000     0.000659  1518.055001     0.000000 
  11.540000  1530.000000     0.000654  1516.393675     0.000000 
  11.560000  1524.100000     0.000656  1514.734439     0.000000 
  11.580000  1500.700000     0.000666  1513.077290     0.000000 
  11.600000  1497.000000     0.000668  1511.422228     0.000000 
  11.620000  1512.400000     0.000661  1509.769250     0.000000 
  11.640000  1530.000000     0.000654  1508.118354     0.000000 
  11.660000  1524.100000     0.000656  1506.469539     0.000000 
  11.680000  1519.300000     0.000658  1504.822803     0.000000 
  11.700000  1518.300000     0.000659  1503.178144     0.000000 
  11.720000  1506.200000     0.000664  1501.535560     0.000000 
  11.740000  1478.600000     0.000676  1499.895050     0.000000 
  11.760000  1489.700000     0.000671  1498.256611     0.000000 
  11.780000  1506.200000     0.000664  1496.620243     0.000000 
  11.800000  1500.200000     0.000667  1494.985942     0.000000 
  11.820000  1489.700000     0.000671  1493.353708     0.000000 
  11.840000  1473.100000     0.000679  1491.723538     0.000000 
  11.860000  1467.600000     0.000681  1490.095431     0.000000 
  11.880000  1463.000000     0.000684  1488.469385     0.000000 
  11.900000  1478.600000     0.000676  1486.845398     0.000000 
  11.920000  1489.700000     0.000671  1485.223469     0.000000 
  11.940000  1471.000000     0.000680  1483.603595     0.000000 
  11.960000  1445.500000     0.000692  1481.985775     0.000000 
  11.980000  1464.000000     0.000683  1480.370007     0.000000 
  12.000000  1489.700000     0.000671  1478.756289     0.000000 
  12.020000  1484.100000     0.000674  1477.144620     0.000000 
  12.040000  1462.100000     0.000684  1475.534998     0.000000 
  12.060000  1467.600000     0.000681  1473.927420     0.000000 
  12.080000  1473.100000     0.000679  1472.321886     0.000000 
  12.100000  1456.600000     0.000687  1470.718393     0.000000 
  12.120000  1439.000000     0.000695  1469.116940     0.000000 
  12.140000  1429.000000     0.000700  1467.517525     0.000000 
  12.160000  1445.500000     0.000692  1465.920145     0.000000 
  12.180000  1451.000000     0.000689  1464.324800     0.000000 
  12.200000  1447.000000     0.000691  1462.731488     0.000000 
  12.220000  1462.100000     0.000684  1461.140206     0.000000 
  12.240000  1445.500000     0.000692  1459.550953     0.000000 
  12.260000  1425.000000     0.000702  1457.963728     0.000000 
  12.280000  1426.000000     0.000701  1456.378528     0.000000 
  12.300000  1422.000000     0.000703  1454.795352     0.000000 
  12.320000  1423.400000     0.000703  1453.214198     0.000000 
  12.340000  1451.000000     0.000689  1451.635063     0.000000 
  12.360000  1456.600000     0.000687  1450.057948     0.000000 
  12.380000  1451.000000     0.000689  1448.482849     0.000000 
  12.400000  1434.500000     0.000697  1446.909765     0.000000 
  12.420000  1439.500000     0.000695  1445.338694     0.000000 
  12.440000  1417.900000     0.000705  1443.769634     0.000000 
  12.460000  1423.400000     0.000703  1442.202584     0.000000 
  12.480000  1399.000000     0.000715  1440.637542     0.000000 
  12.500000  1419.000000     0.000705  1439.074506     0.000000 
  12.520000  1412.100000     0.000708  1437.513475     0.000000 
  12.540000  1391.400000     0.000719  1435.954446     0.000000 
  12.560000  1399.000000     0.000715  1434.397418     0.000000 
  12.580000  1422.400000     0.000703  1432.842389     0.000000 
  12.600000  1412.100000     0.000708  1431.289357     0.000000 
  12.620000  1386.200000     0.000721  1429.738321     0.000000 
  12.640000  1396.600000     0.000716  1428.189279     0.000000 
  12.660000  1405.000000     0.000712  1426.642229     0.000000 
  12.680000  1412.100000     0.000708  1425.097170     0.000000 
  12.700000  1401.700000     0.000713  1423.554099     0.000000 
  12.720000  1376.000000     0.000727  1422.013015     0.000000 
  12.740000  1385.900000     0.000722  1420.473916     0.000000 
  12.760000  1394.000000     0.000717  1418.936800     0.000000 
  12.780000  1401.700000     0.000713  1417.401666     0.000000 
  12.800000  1396.600000     0.000716  1415.868513     0.000000 
  12.820000  1370.700000     0.000730  1414.337337     0.000000 
  12.840000  1378.700000     0.000725  1412.808138     0.000000 
  12.860000  1390.000000     0.000719  1411.280913     0.000000 
  12.880000  1364.000000     0.000733  1409.755661     0.000000 
  12.900000  1372.700000     0.000728  1408.232381     0.000000 
  12.920000  1408.700000     0.000710  1406.711070     0.000000 
  12.940000  1401.700000     0.000713  1405.191727     0.000000 
  12.960000  1375.900000     0.000727  1403.674350     0.000000 
  12.980000  1360.300000     0.000735  1402.158937     0.000000 
  13.000000  1358.000000     0.000736  1400.645487     0.000000 
  13.020000  1376.000000     0.000727  1399.133998     0.000000 
  13.040000  1390.600000     0.000719  1397.624467     0.000000 
  13.060000  1396.600000     0.000716  1396.116894     0.000000 
  13.080000  1360.300000     0.000735  1394.611277     0.000000 
  13.100000  1370.700000     0.000730  1393.107614     0.000000 
  13.120000  1401.700000     0.000713  1391.605903     0.000000 
  13.140000  1391.400000     0.000719  1390.106142     0.000000 
  13.160000  1370.700000     0.000730  1388.608331     0.000000 
  13.180000  1360.300000     0.000735  1387.112466     0.000000 
  13.200000  1365.500000     0.000732  1385.618546     0.000000 
  13.220000  1346.900000     0.000742  1384.126571     0.000000 
  13.240000  1355.000000     0.000738  1382.636537     0.000000 
  13.260000  1342.100000     0.000745  1381.148443     0.000000 
  13.280000  1332.400000     0.000751  1379.662288     0.000000 
  13.300000  1346.900000     0.000742  1378.178069     0.000000 
  13.320000  1350.600000     0.000740  1376.695785     0.000000 
  13.340000  1356.600000     0.000737  1375.215435     0.000000 
  13.360000  1346.900000     0.000742  1373.737017     0.000000 
  13.380000  1324.000000     0.000755  1372.260528     0.000000 
  13.400000  1317.900000     0.000759  1370.785967     0.000000 
  13.420000  1337.200000     0.000748  1369.313333     0.000000 
  13.440000  1351.700000     0.000740  1367.842623     0.000000 
  13.460000  1342.100000     0.000745  1366.373837     0.000000 
  13.480000  1317.900000     0.000759  1364.906972     0.000000 
  13.500000  1307.000000     0.000765  1363.442027     0.000000 
  13.520000  1298.600000     0.000770  1361.978999     0.000000 
  13.540000  1317.900000     0.000759  1360.517888     0.000000 
  13.560000  1327.000000     0.000754  1359.058691     0.000000 
  13.580000  1342.100000     0.000745  1357.601407     0.000000 
  13.600000  1340.100000     0.000746  1356.146034     0.000000 
  13.620000  1317.900000     0.000759  1354.692571     0.000000 
  13.640000  1308.300000     0.000764  1353.241015     0.000000 
  13.660000  1300.000000     0.000769  1351.791365     0.000000 
  13.680000  1292.000000     0.000774  1350.343620     0.000000 
  13.700000  1308.300000     0.000764  1348.897777     0.000000 
  13.720000  1332.400000     0.000751  1347.453835     0.000000 
  13.740000  1330.400000     0.000752  1346.011792     0.000000 
  13.760000  1317.900000     0.000759  1344.571647     0.000000 
  13.780000  1326.000000     0.000754  1343.133398     0.000000 
  13.800000  1308.300000     0.000764  1341.697043     0.000000 
  13.820000  1322.800000     0.000756  1340.262580     0.000000 
  13.840000  1332.400000     0.000751  1338.830008     0.000000 
  13.860000  1327.600000     0.000753  1337.399325     0.000000 
  13.880000  1313.400000     0.000761  1335.970530     0.000000 
  13.900000  1303.400000     0.000767  1334.543620     0.000000 
  13.920000  1322.800000     0.000756  1333.118594     0.000000 
  13.940000  1327.600000     0.000753  1331.695450     0.000000 
  13.960000  1320.800000     0.000757  1330.274188     0.000000 
  13.980000  1328.000000     0.000753  1328.854804     0.000000 
  14.000000  1300.000000     0.000769  1327.437297     0.000000 
  14.020000  1279.300000     0.000782  1326.021666     0.000000 
  14.040000  1279.300000     0.000782  1324.607909     0.000000 
  14.060000  1292.000000     0.000774  1323.196024     0.000000 
  14.080000  1310.100000     0.000763  1321.786010     0.000000 
  14.100000  1313.100000     0.000762  1320.377864     0.000000 
  14.120000  1303.400000     0.000767  1318.971586     0.000000 
  14.140000  1325.000000     0.000755  1317.567173     0.000000 
  14.160000  1285.000000     0.000778  1316.164624     0.000000 
  14.180000  1303.400000     0.000767  1314.763938     0.000000 
  14.200000  1307.900000     0.000765  1313.365111     0.000000 
  14.220000  1317.900000     0.000759  1311.968144     0.000000 
  14.240000  1283.000000     0.000779  1310.573034     0.000000 
  14.260000  1289.000000     0.000776  1309.179779     0.000000 
  14.280000  1318.900000     0.000758  1307.788378     0.000000 
  14.300000  1295.000000     0.000772  1306.398829     0.000000 
  14.320000  1280.000000     0.000781  1305.011131     0.000000 
  14.340000  1264.800000     0.000791  1303.625281     0.000000 
  14.360000  1279.300000     0.000782  1302.241279     0.000000 
  14.380000  1293.800000     0.000773  1300.859122     0.000000 
  14.400000  1313.100000     0.000762  1299.478809     0.000000 
  14.420000  1298.600000     0.000770  1298.100338     0.000000 
  14.440000  1279.300000     0.000782  1296.723708     0.000000 
  14.460000  1274.500000     0.000785  1295.348916     0.000000 
  14.480000  1298.600000     0.000770  1293.975962     0.000000 
  14.500000  1289.000000     0.000776  1292.604843     0.000000 
  14.520000  1264.800000     0.000791  1291.235558     0.000000 
  14.540000  1250.300000     0.000800  1289.868105     0.000000 
  14.560000  1269.700000     0.000788  1288.502482     0.000000 
  14.580000  1279.300000     0.000782  1287.138689     0.000000 
  14.600000  1257.000000     0.000796  1285.776723     0.000000 
  14.620000  1235.000000     0.000810  1284.416582     0.000000 
  14.640000  1245.500000     0.000803  1283.058266     0.000000 
  14.660000  1269.700000     0.000788  1281.701771     0.000000 
  14.680000  1269.700000     0.000788  1280.347097     0.000000 
  14.700000  1258.000000     0.000795  1278.994243     0.000000 
  14.720000  1226.200000     0.000816  1277.643205     0.000000 
  14.740000  1226.200000     0.000816  1276.293983     0.000000 
  14.760000  1240.700000     0.000806  1274.946576     0.000000 
  14.780000  1273.000000     0.000786  1273.600980     0.000000 
  14.800000  1250.300000     0.000800  1272.257196     0.000000 
  14.820000  1269.700000     0.000788  1270.915220     0.000000 
  14.840000  1284.100000     0.000779  1269.575052     0.000000 
  14.860000  1264.000000     0.000791  1268.236690     0.000000 
  14.880000  1269.700000     0.000788  1266.900132     0.000000 
  14.900000  1269.700000     0.000788  1265.565376     0.000000 
  14.920000  1250.700000     0.000800  1264.232421     0.000000 
  14.940000  1237.200000     0.000808  1262.901266     0.000000 
  14.960000  1229.000000     0.000814  1261.571908     0.000000 
  14.980000  1237.200000     0.000808  1260.244346     0.000000 
  15.000000  1252.000000     0.000799  1258.918579     0.000000 
  15.020000  1250.700000     0.000800  1257.594604     0.000000 
  15.040000  1223.800000     0.000817  1256.272420     0.000000 
  15.060000  1219.300000     0.000820  1254.952026     0.000000 
  15.080000  1223.800000     0.000817  1253.633420     0.000000 
  15.100000  1246.200000     0.000802  1252.316599     0.000000 
  15.120000  1255.200000     0.000797  1251.001564     0.000000 
  15.140000  1246.200000     0.000802  1249.688311     0.000000 
  15.160000  1230.000000     0.000813  1248.376839     0.000000 
  15.180000  1202.000000     0.000832  1247.067147     0.000000 
  15.200000  1214.800000     0.000823  1245.759234     0.000000 
  15.220000  1228.300000     0.000814  1244.453096     0.000000 
  15.240000  1231.000000     0.000812  1243.148734     0.000000 
  15.260000  1216.000000     0.000822  1241.846144     0.000000 
  15.280000  1201.400000     0.000832  1240.545326     0.000000 
  15.300000  1219.300000     0.000820  1239.246278     0.000000 
  15.320000  1223.000000     0.000818  1237.948999     0.000000 
  15.340000  1194.000000     0.000838  1236.653486     0.000000 
  15.360000  1196.900000     0.000835  1235.359738     0.000000 
  15.380000  1189.000000     0.000841  1234.067753     0.000000 
  15.400000  1219.300000     0.000820  1232.777531     0.000000 
  15.420000  1232.800000     0.000811  1231.489068     0.000000 
  15.440000  1219.300000     0.000820  1230.202364     0.000000 
  15.460000  1210.300000     0.000826  1228.917418     0.000000 
  15.480000  1232.800000     0.000811  1227.634226     0.000000 
  15.500000  1230.000000     0.000813  1226.352788     0.000000 
  15.520000  1219.300000     0.000820  1225.073103     0.000000 
  15.540000  1214.800000     0.000823  1223.795168     0.000000 
  15.560000  1223.800000     0.000817  1222.518982     0.000000 
  15.580000  1232.800000     0.000811  1221.244543     0.000000 
  15.600000  1232.800000     0.000811  1219.971850     0.000000 
  15.620000  1226.000000     0.000816  1218.700901     0.000000 
  15.640000  1244.000000     0.000804  1217.431694     0.000000 
  15.660000  1223.800000     0.000817  1216.164229     0.000000 
  15.680000  1205.900000     0.000829  1214.898503     0.000000 
  15.700000  1201.400000     0.000832  1213.634514     0.000000 
  15.720000  1223.800000     0.000817  1212.372262     0.000000 
  15.740000  1237.200000     0.000808  1211.111744     0.000000 
  15.760000  1222.000000     0.000818  1209.852958     0.000000 
  15.780000  1214.800000     0.000823  1208.595905     0.000000 
  15.800000  1205.900000     0.000829  1207.340580     0.000000 
  15.820000  1214.800000     0.000823  1206.086984     0.000000 
  15.840000  1219.300000     0.000820  1204.835115     0.000000 
  15.860000  1228.300000     0.000814  1203.584970     0.000000 
  15.880000  1223.800000     0.000817  1202.336549     0.000000 
  15.900000  1219.300000     0.000820  1201.089849     0.000000 
  15.920000  1199.900000     0.000833  1199.844870     0.000000 
  15.940000  1196.900000     0.000835  1198.601609     0.000000 
  15.960000  1190.400000     0.000840  1197.360064     0.000000 
  15.980000  1213.300000     0.000824  1196.120236     0.000000 
  16.000000  1219.300000     0.000820  1194.882121     0.000000 
  16.020000  1210.300000     0.000826  1193.645718     0.000000 
  16.040000  1189.900000     0.000840  1192.411026     0.000000 
  16.060000  1181.900000     0.000846  1191.178042     0.000000 
  16.080000  1187.900000     0.000842  1189.946767     0.000000 
  16.100000  1205.900000     0.000829  1188.717197     0.000000 
  16.120000  1210.300000     0.000826  1187.489331     0.000000 
  16.140000  1214.800000     0.000823  1186.263168     0.000000 
  16.160000  1205.900000     0.000829  1185.038706     0.000000 
  16.180000  1187.900000     0.000842  1183.815943     0.000000 
  16.200000  1183.400000     0.000845  1182.594879     0.000000 
  16.220000  1209.900000     0.000827  1181.375510     0.000000 
  16.240000  1205.900000     0.000829  1180.157837     0.000000 
  16.260000  1196.900000     0.000835  1178.941856     0.000000 
  16.280000  1179.000000     0.000848  1177.727568     0.000000 
  16.300000  1148.000000     0.000871  1176.514969     0.000000 
  16.320000  1177.000000     0.000850  1175.304059     0.000000 
  16.340000  1180.900000     0.000847  1174.094835     0.000000 
  16.360000  1187.900000     0.000842  1172.887297     0.000000 
  16.380000  1179.000000     0.000848  1171.681443     0.000000 
  16.400000  1152.100000     0.000868  1170.477271     0.000000 
  16.420000  1174.500000     0.000851  1169.274779     0.000000 
  16.440000  1183.400000     0.000845  1168.073967     0.000000 
  16.460000  1165.500000     0.000858  1166.874832     0.000000 
  16.480000  1147.600000     0.000871  1165.677373     0.000000 
  16.500000  1163.000000     0.000860  1164.481588     0.000000 
  16.520000  1170.000000     0.000855  1163.287476     0.000000 
  16.540000  1147.600000     0.000871  1162.095035     0.000000 
  16.560000  1138.100000     0.000879  1160.904264     0.000000 
  16.580000  1134.100000     0.000882  1159.715161     0.000000 
  16.600000  1140.000000     0.000877  1158.527724     0.000000 
  16.620000  1174.500000     0.000851  1157.341952     0.000000 
  16.640000  1174.500000     0.000851  1156.157844     0.000000 
  16.660000  1156.600000     0.000865  1154.975398     0.000000 
  16.680000  1145.000000     0.000873  1153.794611     0.000000 
  16.700000  1154.000000     0.000867  1152.615484     0.000000 
  16.720000  1153.000000     0.000867  1151.438014     0.000000 
  16.740000  1144.000000     0.000874  1150.262199     0.000000 
  16.760000  1156.600000     0.000865  1149.088038     0.000000 
  16.780000  1140.000000     0.000877  1147.915530     0.000000 
  16.800000  1120.700000     0.000892  1146.744673     0.000000 
  16.820000  1104.000000     0.000906  1145.575465     0.000000 
  16.840000  1107.200000     0.000903  1144.407905     0.000000 
  16.860000  1110.000000     0.000901  1143.241992     0.000000 
  16.880000  1138.600000     0.000878  1142.077723     0.000000 
  16.900000  1129.700000     0.000885  1140.915097     0.000000 
  16.920000  1107.000000     0.000903  1139.754113     0.000000 
  16.940000  1097.000000     0.000912  1138.594769     0.000000 
  16.960000  1090.000000     0.000917  1137.437064     0.000000 
  16.980000  1116.200000     0.000896  1136.280995     0.000000 
  17.000000  1129.700000     0.000885  1135.126563     0.000000 
  17.020000  1110.000000     0.000901  1133.973764     0.000000 
  17.040000  1098.300000     0.000910  1132.822597     0.000000 
  17.060000  1093.800000     0.000914  1131.673061     0.000000 
  17.080000  1102.800000     0.000907  1130.525155     0.000000 
  17.100000  1091.000000     0.000917  1129.378876     0.000000 
  17.120000  1121.000000     0.000892  1128.234224     0.000000 
  17.140000  1125.200000     0.000889  1127.091196     0.000000 
  17.160000  1116.000000     0.000896  1125.949792     0.000000 
  17.180000  1105.000000     0.000905  1124.810009     0.000000 
  17.200000  1107.200000     0.000903  1123.671846     0.000000 
  17.220000  1111.700000     0.000900  1122.535302     0.000000 
  17.240000  1126.000000     0.000888  1121.400375     0.000000 
  17.260000  1123.000000     0.000890  1120.267063     0.000000 
  17.280000  1117.200000     0.000895  1119.135365     0.000000 
  17.300000  1100.700000     0.000909  1118.005280     0.000000 
  17.320000  1109.000000     0.000902  1116.876806     0.000000 
  17.340000  1112.000000     0.000899  1115.749941     0.000000 
  17.360000  1103.000000     0.000907  1114.624684     0.000000 
  17.380000  1106.000000     0.000904  1113.501033     0.000000 
  17.400000  1100.700000     0.000909  1112.378987     0.000000 
  17.420000  1088.300000     0.000919  1111.258544     0.000000 
  17.440000  1084.100000     0.000922  1110.139703     0.000000 
  17.460000  1063.400000     0.000940  1109.022463     0.000000 
  17.480000  1092.000000     0.000916  1107.906821     0.000000 
  17.500000  1076.000000     0.000929  1106.792776     0.000000 
  17.520000  1084.100000     0.000922  1105.680327     0.000000 
  17.540000  1078.700000     0.000927  1104.569472     0.000000 
  17.560000  1071.700000     0.000933  1103.460209     0.000000 
  17.580000  1060.000000     0.000943  1102.352538     0.000000 
  17.600000  1080.000000     0.000926  1101.246456     0.000000 
  17.620000  1084.000000     0.000923  1100.141963     0.000000 
  17.640000  1069.300000     0.000935  1099.039056     0.000000 
  17.660000  1071.700000     0.000933  1097.937734     0.000000 
  17.680000  1075.000000     0.000930  1096.837996     0.000000 
  17.700000  1100.000000     0.000909  1095.739839     0.000000 
  17.720000  1084.100000     0.000922  1094.643263     0.000000 
  17.740000  1075.900000     0.000929  1093.548267     0.000000 
  17.760000  1067.600000     0.000937  1092.454847     0.000000 
  17.780000  1073.000000     0.000932  1091.363004     0.000000 
  17.800000  1080.000000     0.000926  1090.272735     0.000000 
  17.820000  1090.000000     0.000917  1089.184040     0.000000 
  17.840000  1084.100000     0.000922  1088.096915     0.000000 
  17.860000  1061.000000     0.000943  1087.011361     0.000000 
  17.880000  1059.300000     0.000944  1085.927375     0.000000 
  17.900000  1075.900000     0.000929  1084.844956     0.000000 
  17.920000  1084.100000     0.000922  1088.395353     0.000000 
  17.940000  1072.900000     0.000932  1087.449789     0.000000 
  17.960000  1088.300000     0.000919  1086.511660     0.000000 
  17.980000  1061.000000     0.000943  1085.581316     0.000000 
  18.000000  1063.400000     0.000940  1084.659129     0.000000 
  18.020000  1080.000000     0.000926  1083.745502     0.000000 
  18.040000  1092.400000     0.000915  1082.840868     0.000000 
  18.060000  1095.000000     0.000913  1081.945696     0.000000 
  18.080000  1080.000000     0.000926  1081.060492     0.000000 
  18.100000  1073.000000     0.000932  1080.185802     0.000000 
  18.120000  1054.000000     0.000949  1079.322219     0.000000 
  18.140000  1059.300000     0.000944  1078.470386     0.000000 
  18.160000  1068.000000     0.000936  1077.631001     0.000000 
  18.180000  1082.000000     0.000924  1076.804821     0.000000 
  18.200000  1078.900000     0.000927  1075.992673     0.000000 
  18.220000  1075.900000     0.000929  1075.195458     0.000000 
  18.240000  1059.300000     0.000944  1075.236116     0.000000 
  18.260000  1055.200000     0.000948  1074.494785     0.000000 
  18.280000  1063.400000     0.000940  1075.564405     0.000000 
  18.300000  1080.000000     0.000926  1074.912610     0.000000 
  18.320000  1073.900000     0.000931  1074.284905     0.000000 
  18.340000  1055.200000     0.000948  1073.683042     0.000000 
  18.360000  1059.000000     0.000944  1073.108946     0.000000 
  18.380000  1055.300000     0.000948  1072.564740     0.000000 
  18.400000  1063.400000     0.000940  1072.052771     0.000000 
  18.420000  1067.600000     0.000937  1071.575633     0.000000 
  18.440000  1052.000000     0.000951  1071.136205     0.000000 
  18.460000  1046.900000     0.000955  1070.737690     0.000000 
  18.480000  1038.500000     0.000963  1070.383653     0.000000 
  18.500000  1034.500000     0.000967  1070.078079     0.000000 
  18.520000  1046.900000     0.000955  1069.825433     0.000000 
  18.540000  1042.800000     0.000959  1069.630728     0.000000 
  18.560000  1032.500000     0.000969  1069.499611     0.000000 
  18.580000  1019.000000     0.000981  1069.438463     0.000000 
  18.600000  1054.000000     0.000949  1069.454515     0.000000 
  18.620000  1055.200000     0.000948  1069.555991     0.000000 
  18.640000  1042.800000     0.000959  1069.752276     0.000000 
  18.660000  1034.500000     0.000967  1070.054119     0.000000 
  18.680000  1034.500000     0.000967  1070.473884     0.000000 
  18.700000  1046.900000     0.000955  1071.025845     0.000000 
  18.720000  1063.400000     0.000940  1071.726560     0.000000 
  18.740000  1066.000000     0.000938  1072.595324     0.000000 
  18.760000  1054.000000     0.000949  1073.654733     0.000000 
  18.780000  1038.600000     0.000963  1074.931391     0.000000 
  18.800000  1034.500000     0.000967  1076.456798     0.000000 
  18.820000  1047.000000     0.000955  1078.268480     0.000000 
  18.840000  1059.300000     0.000944  1080.411427     0.000000 
  18.860000  1056.000000     0.000947  1082.939962     0.000000 
  18.880000  1079.000000     0.000927  1085.920169     0.000000 
  18.900000  1047.000000     0.000955  1089.433093     0.000000 
  18.920000  1040.000000     0.000962  1093.579000     0.000000 
  18.940000  1051.000000     0.000951  1098.483131     0.000000 
  18.960000  1071.700000     0.000933  1104.303547     0.000000 
  18.980000  1059.300000     0.000944  1111.241996     0.000000 
  19.000000  1046.900000     0.000955  1119.559197     0.000000 
  19.020000  1174.000000     0.000852  1129.596710     0.000000 
  19.040000  1137.000000     0.000880  1141.808771     0.000000 
  19.060000  1151.000000     0.000869  1156.809580     0.000000 
  19.080000  1202.000000     0.000832  1175.446038     0.000000 
  19.100000  1265.000000     0.000791  1198.916032     0.000000 
  19.120000  1348.300000     0.000742  1229.011305     0.000000 
  19.140000  1348.300000     0.000742  1268.858268     0.000000 
  19.160000  1506.900000     0.000664  1325.855909     0.000000 
  19.180000  1824.100000     0.000548  1422.673320     0.000000 
  19.200000  2655.200000     0.000377  1629.594484     0.000000 
  19.220000  4679.300000     0.000214  2129.964829     0.000000 
  19.240000  7375.900000     0.000136  3285.113190     0.000000 
  19.260000  12927.600000     0.000077  5565.329839     0.000000 
  19.280000  18082.800000     0.000055  9191.278661     0.000000 
  19.300000  21848.300000     0.000046  13589.577922     0.000000 
  19.320000  22524.100000     0.000044  17121.498900     0.000000 
  19.340000  19875.900000     0.000050  17725.683031     0.000000 
  19.360000  16179.300000     0.000062  14970.457934     0.000000 
  19.380000  11262.100000     0.000089  10635.737236     0.000000 
  19.400000  7693.100000     0.000130  6643.776059     0.000000 
  19.420000  4600.000000     0.000217  3920.458971     0.000000 
  19.440000  3013.800000     0.000332  2450.481621     0.000000 
  19.460000  2185.000000     0.000458  1791.654388     0.000000 
  19.480000  1701.000000     0.000588  1527.391722     0.000000 
  19.500000  1508.000000     0.000663  1420.662578     0.000000 
  19.520000  1492.000000     0.000670  1374.272861     0.000000 
  19.540000  1608.000000     0.000622  1359.619124     0.000000 
  19.560000  1910.000000     0.000524  1379.525397     0.000000 
  19.580000  2438.000000     0.000410  1464.840697     0.000000 
  19.600000  3399.000000     0.000294  1688.907202     0.000000 
  19.620000  4788.000000     0.000209  2177.748229     0.000000 
  19.640000  6858.000000     0.000146  3084.579197     0.000000 
  19.660000  9330.000000     0.000107  4504.995050     0.000000 
  19.680000  11212.000000     0.000089  6340.259750     0.000000 
  19.700000  12823.000000     0.000078  8184.846220     0.000000 
  19.720000  13969.000000     0.000072  9453.570416     0.000000 
  19.740000  14307.000000     0.000070  9639.366330     0.000000 
  19.760000  13193.000000     0.000076  8519.094420     0.000000 
  19.780000  11400.000000     0.000088  6555.789603     0.000000 
  19.800000  8638.000000     0.000116  4541.907384     0.000000 
  19.820000  5943.000000     0.000168  2992.251369     0.000000 
  19.840000  4045.000000     0.000247  2032.896482     0.000000 
  19.860000  2458.000000     0.000407  1537.067637     0.000000 
  19.880000  1716.000000     0.000583  1311.536719     0.000000 
  19.900000  1415.000000     0.000707  1211.537563     0.000000 
  19.920000  1291.000000     0.000775  1161.336926     0.000000 
  19.940000  1235.200000     0.000810  1130.220325     0.000000 
  19.960000  1166.900000     0.000857  1107.607390     0.000000 
  19.980000  1135.000000     0.000881  1089.876714     0.000000 
  20.000000  1101.000000     0.000908  1075.491399     0.000000 
  20.020000  1080.000000     0.000926  1063.579358     0.000000 
  20.040000  1055.200000     0.000948  1053.555610     0.000000 
  20.060000  1063.000000     0.000941  1045.001994     0.000000 
  20.080000  1049.000000     0.000953  1037.611100     0.000000 
  20.100000  1040.800000     0.000961  1031.152642     0.000000 
  20.120000  1042.800000     0.000959  1025.451293     0.000000 
  20.140000  1027.000000     0.000974  1020.371624     0.000000 
  20.160000  1034.100000     0.000967  1015.807644     0.000000 
  20.180000  1030.300000     0.000971  1011.675400     0.000000 
  20.200000  1018.000000     0.000982  1007.907666     0.000000 
  20.220000  1027.900000     0.000973  1004.450068     0.000000 
  20.240000  1015.500000     0.000985  1001.258220     0.000000 
  20.260000   993.100000     0.001007   998.295603     0.000000 
  20.280000   979.000000     0.001021   995.531886     0.000000 
  20.300000   986.000000     0.001014   992.941710     0.000000 
  20.320000   991.000000     0.001009   990.503757     0.000000 
  20.340000   988.000000     0.001012   988.199974     0.000000 
  20.360000   980.700000     0.001020   986.014987     0.000000 
  20.380000   949.700000     0.001053   983.935629     0.000000 
  20.400000   955.700000     0.001046   981.950569     0.000000 
  20.420000   962.100000     0.001039   980.050003     0.000000 
  20.440000   952.000000     0.001050   978.225417     0.000000 
  20.460000   984.000000     0.001016   976.469381     0.000000 
  20.480000   974.500000     0.001026   974.775386     0.000000 
  20.500000   949.700000     0.001053   973.137711     0.000000 
  20.520000   937.200000     0.001067   971.551306     0.000000 
  20.540000   943.400000     0.001060   970.011700     0.000000 
  20.560000   929.000000     0.001076   968.514922     0.000000 
  20.580000   909.000000     0.001100   967.057434     0.000000 
  20.600000   937.200000     0.001067   965.636075     0.000000 
  20.620000   943.400000     0.001060   964.248013     0.000000 
  20.640000   955.900000     0.001046   962.890703     0.000000 
  20.660000   959.000000     0.001043   961.561855     0.000000 
  20.680000   947.000000     0.001056   960.259400     0.000000 
  20.700000   924.800000     0.001081   958.981467     0.000000 
  20.720000   955.000000     0.001047   957.726360     0.000000 
  20.740000   959.000000     0.001043   956.492538     0.000000 
  20.760000   943.000000     0.001060   950.733620     0.000000 
  20.780000   949.000000     0.001054   958.499520     0.000000 
  20.800000   937.000000     0.001067   957.645119     0.000000 
  20.820000   960.000000     0.001042   956.809431     0.000000 
  20.840000   974.500000     0.001026   955.992064     0.000000 
  20.860000   962.100000     0.001039   955.192709     0.000000 
  20.880000   949.700000     0.001053   954.411136     0.000000 
  20.900000   941.000000     0.001063   953.647190     0.000000 
  20.920000   960.000000     0.001042   956.526558     0.000000 
  20.940000   963.000000     0.001038   955.881516     0.000000 
  20.960000   959.000000     0.001043   955.256990     0.000000 
  20.980000   948.300000     0.001055   954.653233     0.000000 
  21.000000   955.900000     0.001046   954.070573     0.000000 
  21.020000   967.200000     0.001034   953.509410     0.000000 
  21.040000   950.000000     0.001053   952.970217     0.000000 
  21.060000   951.000000     0.001052   952.453544     0.000000 
  21.080000   936.900000     0.001067   951.960018     0.000000 
  21.100000   925.500000     0.001080   951.490348     0.000000 
  21.120000   946.000000     0.001057   951.045324     0.000000 
  21.140000   944.500000     0.001059   950.625829     0.000000 
  21.160000   921.000000     0.001086   949.413335     0.000000 
  21.180000   929.300000     0.001076   949.069865     0.000000 
  21.200000   936.900000     0.001067   948.754274     0.000000 
  21.220000   925.500000     0.001080   946.702915     0.000000 
  21.240000   924.000000     0.001082   946.494030     0.000000 
  21.260000   936.900000     0.001067   946.315548     0.000000 
  21.280000   944.500000     0.001059   946.169281     0.000000 
  21.300000   933.100000     0.001072   946.057182     0.000000 
  21.320000   916.000000     0.001092   945.981365     0.000000 
  21.340000   929.000000     0.001076   945.944114     0.000000 
  21.360000   924.000000     0.001082   945.947904     0.000000 
  21.380000   936.900000     0.001067   945.995420     0.000000 
  21.400000   929.300000     0.001076   946.089578     0.000000 
  21.420000   917.900000     0.001089   946.233549     0.000000 
  21.440000   914.100000     0.001094   946.430786     0.000000 
  21.460000   921.700000     0.001085   946.685058     0.000000 
  21.480000   929.300000     0.001076   947.000481     0.000000 
  21.500000   931.000000     0.001074   947.381558     0.000000 
  21.520000   908.000000     0.001101   947.833227     0.000000 
  21.540000   921.700000     0.001085   948.360906     0.000000 
  21.560000   905.000000     0.001105   948.970558     0.000000 
  21.580000   921.700000     0.001085   949.668751     0.000000 
  21.600000   936.900000     0.001067   950.462738     0.000000 
  21.620000   945.000000     0.001058   951.360543     0.000000 
  21.640000   925.500000     0.001080   952.371060     0.000000 
  21.660000   917.900000     0.001089   953.504171     0.000000 
  21.680000   929.000000     0.001076   954.770881     0.000000 
  21.700000   940.700000     0.001063   956.183473     0.000000 
  21.720000   936.900000     0.001067   957.755690     0.000000 
  21.740000   921.700000     0.001085   959.502952     0.000000 
  21.760000   935.000000     0.001070   961.442605     0.000000 
  21.780000   950.000000     0.001053   963.594218     0.000000 
  21.800000   948.000000     0.001055   965.979932     0.000000 
  21.820000   949.000000     0.001054   968.624881     0.000000 
  21.840000   937.000000     0.001067   971.557689     0.000000 
  21.860000   955.000000     0.001047   974.811067     0.000000 
  21.880000   948.300000     0.001055   978.422537     0.000000 
  21.900000   933.100000     0.001072   982.435305     0.000000 
  21.920000   936.900000     0.001067   986.899327     0.000000 
  21.940000   947.000000     0.001056   991.872618     0.000000 
  21.960000   948.300000     0.001055   997.422859     0.000000 
  21.980000   967.200000     0.001034  1003.629400     0.000000 
  22.000000   951.000000     0.001052  1010.585759     0.000000 
  22.020000   963.400000     0.001038  1018.402763     0.000000 
  22.040000   971.000000     0.001030  1027.212544     0.000000 
  22.060000   960.400000     0.001041  1037.173636     0.000000 
  22.080000   963.400000     0.001038  1048.477560     0.000000 
  22.100000   967.200000     0.001034  1061.357398     0.000000 
  22.120000   990.000000     0.001010  1076.099072     0.000000 
  22.140000  1097.000000     0.000912  1093.056344     0.000000 
  22.160000  1056.000000     0.000947  1112.670993     0.000000 
  22.180000  1064.000000     0.000940  1135.500309     0.000000 
  22.200000  1105.000000     0.000905  1162.255046     0.000000 
  22.220000  1134.000000     0.000882  1193.853794     0.000000 
  22.240000  1176.000000     0.000850  1231.501929     0.000000 
  22.260000  1160.000000     0.000862  1276.829761     0.000000 
  22.280000  1255.000000     0.000797  1332.195211     0.000000 
  22.300000  1266.000000     0.000790  1401.554015     0.000000 
  22.320000  1317.000000     0.000759  1493.175371     0.000000 
  22.340000  1482.000000     0.000675  1627.524424     0.000000 
  22.360000  1623.000000     0.000616  1856.752532     0.000000 
  22.380000  1655.200000     0.000604  2303.169728     0.000000 
  22.400000  2505.000000     0.000399  3213.795836     0.000000 
  22.420000  3641.400000     0.000275  4996.806022     0.000000 
  22.440000  7269.000000     0.000138  8163.705380     0.000000 
  22.460000  12293.100000     0.000081  13100.265728     0.000000 
  22.480000  19882.800000     0.000050  19691.300691     0.000000 
  22.500000  26724.100000     0.000037  26990.226551     0.000000 
  22.520000  30896.600000     0.000032  33184.424321     0.000000 
  22.540000  31558.600000     0.000032  36128.168641     0.000000 
  22.560000  28800.000000     0.000035  34796.095242     0.000000 
  22.580000  25116.000000     0.000040  30416.412851     0.000000 
  22.600000  21110.000000     0.000047  25346.890972     0.000000 
  22.620000  18317.200000     0.000055  21413.586642     0.000000 
  22.640000  17655.200000     0.000057  19212.751811     0.000000 
  22.660000  17324.100000     0.000058  18139.360717     0.000000 
  22.680000  16996.600000     0.000059  16971.370752     0.000000 
  22.700000  15820.700000     0.000063  14866.337479     0.000000 
  22.720000  13362.100000     0.000075  11938.605784     0.000000 
  22.740000  10048.300000     0.000100  8823.637485     0.000000 
  22.760000  7062.100000     0.000142  6108.302003     0.000000 
  22.780000  4744.800000     0.000211  4097.849262     0.000000 
  22.800000  2886.200000     0.000346  2805.068906     0.000000 
  22.820000  1758.000000     0.000569  2065.111321     0.000000 
  22.840000  1460.000000     0.000685  1673.080626     0.000000 
  22.860000  1283.000000     0.000779  1467.899322     0.000000 
  22.880000  1215.000000     0.000823  1352.242616     0.000000 
  22.900000  1107.000000     0.000903  1277.559219     0.000000 
  22.920000  1157.000000     0.000864  1222.748262     0.000000 
  22.940000  1079.000000     0.000927  1179.208087     0.000000 
  22.960000  1086.000000     0.000921  1143.234511     0.000000 
  22.980000  1046.000000     0.000956  1112.915946     0.000000 
  23.000000  1043.000000     0.000959  1087.043821     0.000000 
  23.020000  1050.000000     0.000952  1064.751664     0.000000 
  23.040000  1005.000000     0.000995  1045.382801     0.000000 
  23.060000  1010.000000     0.000990  1028.426532     0.000000 
  23.080000   978.600000     0.001022  1013.480159     0.000000 
  23.100000   971.000000     0.001030  1000.222277     0.000000 
  23.120000   955.900000     0.001046   988.393751     0.000000 
  23.140000   976.000000     0.001025   977.783708     0.000000 
  23.160000   943.000000     0.001060   968.219079     0.000000 
  23.180000   933.000000     0.001072   959.556706     0.000000 
  23.200000   917.900000     0.001089   951.677311     0.000000 
  23.220000   910.300000     0.001099   944.480847     0.000000 
  23.240000   914.100000     0.001094   937.882873     0.000000 
  23.260000   921.700000     0.001085   932.083490     0.000000 
  23.280000   912.000000     0.001096   926.483468     0.000000 
  23.300000   902.800000     0.001108   921.577140     0.000000 
  23.320000   876.200000     0.001141   916.764218     0.000000 
  23.340000   879.400000     0.001137   912.280400     0.000000 
  23.360000   872.400000     0.001146   908.091657     0.000000 
  23.380000   852.000000     0.001174   904.168290     0.000000 
  23.400000   869.000000     0.001151   900.484286     0.000000 
  23.420000   875.000000     0.001143   897.016780     0.000000 
  23.440000   864.800000     0.001156   893.745605     0.000000 
  23.460000   872.000000     0.001147   890.652922     0.000000 
  23.480000   852.000000     0.001174   887.722901     0.000000 
  23.500000   865.000000     0.001156   884.941456     0.000000 
  23.520000   860.000000     0.001163   882.296020     0.000000 
  23.540000   853.400000     0.001172   879.775352     0.000000 
  23.560000   842.100000     0.001188   877.369374     0.000000 
  23.580000   845.900000     0.001182   875.069026     0.000000 
  23.600000   863.000000     0.001159   872.866152     0.000000 
  23.620000   842.100000     0.001188   870.753387     0.000000 
  23.640000   853.400000     0.001172   868.724073     0.000000 
  23.660000   861.000000     0.001161   866.772178     0.000000 
  23.680000   858.400000     0.001165   864.892225     0.000000 
  23.700000   830.700000     0.001204   863.079236     0.000000 
  23.720000   836.700000     0.001195   861.328678     0.000000 
  23.740000   844.000000     0.001185   859.636417     0.000000 
  23.760000   838.000000     0.001193   857.998678     0.000000 
  23.780000   843.000000     0.001186   856.412009     0.000000 
  23.800000   849.700000     0.001177   854.873249     0.000000 
  23.820000   853.000000     0.001172   853.379501     0.000000 
  23.840000   838.300000     0.001193   851.928108     0.000000 
  23.860000   848.000000     0.001179   850.516632     0.000000 
  23.880000   834.500000     0.001198   849.142829     0.000000 
  23.900000   823.000000     0.001215   847.804640     0.000000 
  23.920000   819.300000     0.001221   846.500169     0.000000 
  23.940000   814.000000     0.001229   845.227673     0.000000 
  23.960000   816.000000     0.001225   843.985549     0.000000 
  23.980000   822.500000     0.001216   842.772320     0.000000 
  24.000000   834.800000     0.001198   841.586633     0.000000 
  24.020000   819.400000     0.001220   840.427242     0.000000 
  24.040000   816.300000     0.001225   839.293006     0.000000 
  24.060000   814.000000     0.001229   838.182880     0.000000 
  24.080000   825.600000     0.001211   837.095909     0.000000 
  24.100000   831.700000     0.001202   836.031226     0.000000 
  24.120000   828.600000     0.001207   834.988042     0.000000 
  24.140000   825.600000     0.001211   833.965650     0.000000 
  24.160000   822.500000     0.001216   832.963413     0.000000 
  24.180000   819.300000     0.001221   831.980770     0.000000 
  24.200000   813.300000     0.001230   831.017228     0.000000 
  24.220000   822.500000     0.001216   830.072365     0.000000 
  24.240000   825.600000     0.001211   829.145827     0.000000 
  24.260000   820.600000     0.001219   828.237331     0.000000 
  24.280000   822.500000     0.001216   827.346661     0.000000 
  24.300000   810.200000     0.001234   826.473674     0.000000 
  24.320000   813.300000     0.001230   816.962059     0.000000 
  24.340000   822.500000     0.001216   816.315445     0.000000 
  24.360000   825.600000     0.001211   815.680285     0.000000 
  24.380000   822.500000     0.001216   815.057026     0.000000 
  24.400000   819.400000     0.001220   814.446195     0.000000 
  24.420000   809.100000     0.001236   813.848407     0.000000 
  24.440000   807.100000     0.001239   813.264375     0.000000 
  24.460000   816.300000     0.001225   809.170783     0.000000 
  24.480000   825.600000     0.001211   808.694539     0.000000 
  24.500000   819.000000     0.001221   808.232396     0.000000 
  24.520000   808.000000     0.001238   807.785729     0.000000 
  24.540000   786.000000     0.001272   807.356102     0.000000 
  24.560000   804.100000     0.001244   806.945298     0.000000 
  24.580000   813.300000     0.001230   806.555355     0.000000 
  24.600000   816.300000     0.001225   806.188612     0.000000 
  24.620000   802.000000     0.001247   805.847764     0.000000 
  24.640000   804.100000     0.001244   805.535931     0.000000 
  24.660000   794.900000     0.001258   805.256735     0.000000 
  24.680000   801.000000     0.001248   805.014404     0.000000 
  24.700000   816.300000     0.001225   804.813896     0.000000 
  24.720000   807.100000     0.001239   804.661054     0.000000 
  24.740000   801.000000     0.001248   804.562805     0.000000 
  24.760000   797.900000     0.001253   804.527401     0.000000 
  24.780000   810.200000     0.001234   804.564742     0.000000 
  24.800000   816.300000     0.001225   804.686778     0.000000 
  24.820000   804.100000     0.001244   804.908036     0.000000 
  24.840000   801.000000     0.001248   805.246313     0.000000 
  24.860000   794.900000     0.001258   805.723588     0.000000 
  24.880000   797.900000     0.001253   806.367256     0.000000 
  24.900000   807.100000     0.001239   807.211803     0.000000 
  24.920000   816.300000     0.001225   808.301278     0.000000 
  24.940000   816.000000     0.001225   809.693287     0.000000 
  24.960000   813.300000     0.001230   811.467122     0.000000 
  24.980000   797.900000     0.001253   813.743722     0.000000 
  25.000000   803.000000     0.001245   816.739347     0.000000 
  25.020000   811.000000     0.001233   820.905827     0.000000 
  25.040000   820.700000     0.001218   827.262599     0.000000 
  25.060000   817.000000     0.001224   838.078565     0.000000 
  25.080000   859.300000     0.001164   858.035469     0.000000 
  25.100000   897.900000     0.001114   895.753535     0.000000 
  25.120000   965.500000     0.001036   964.972112     0.000000 
  25.140000  1129.700000     0.000885  1083.915683     0.000000 
  25.160000  1342.100000     0.000745  1271.085196     0.000000 
  25.180000  1718.600000     0.000582  1536.767717     0.000000 
  25.200000  2201.400000     0.000454  1872.066742     0.000000 
  25.220000  2520.000000     0.000397  2239.756707     0.000000 
  25.240000  2722.800000     0.000367  2572.730314     0.000000 
  25.260000  2751.700000     0.000363  2788.866809     0.000000 
  25.280000  2655.200000     0.000377  2826.060804     0.000000 
  25.300000  2326.900000     0.000430  2672.997864     0.000000 
  25.320000  2056.600000     0.000486  2374.471041     0.000000 
  25.340000  1602.800000     0.000624  2009.724678     0.000000 
  25.360000  1361.400000     0.000735  1654.662027     0.000000 
  25.380000  1149.000000     0.000870  1358.463580     0.000000 
  25.400000   994.500000     0.001006  1140.138653     0.000000 
  25.420000   936.600000     0.001068   995.520547     0.000000 
  25.440000   869.000000     0.001151   908.105379     0.000000 
  25.460000   840.000000     0.001190   858.851031     0.000000 
  25.480000   822.000000     0.001217   832.061120     0.000000 
  25.500000   811.000000     0.001233   817.222317     0.000000 
  25.520000   784.000000     0.001276   808.296268     0.000000 
  25.540000   798.000000     0.001253   802.245955     0.000000 
  25.560000   801.400000     0.001248   797.669901     0.000000 
  25.580000   801.400000     0.001248   793.948972     0.000000 
  25.600000   797.000000     0.001255   790.798891     0.000000 
  25.620000   801.400000     0.001248   788.070923     0.000000 
  25.640000   800.200000     0.001250   785.673014     0.000000 
  25.660000   804.000000     0.001244   783.540470     0.000000 
  25.680000   803.100000     0.001245   781.624570     0.000000 
  25.700000   789.000000     0.001267   779.887475     0.000000 
  25.720000   794.300000     0.001259   778.299257     0.000000 
  25.740000   784.000000     0.001276   776.836000     0.000000 
  25.760000   771.000000     0.001297   775.478405     0.000000 
  25.780000   785.500000     0.001273   774.210762     0.000000 
  25.800000   791.400000     0.001264   773.020189     0.000000 
  25.820000   785.000000     0.001274   771.896042     0.000000 
  25.840000   775.000000     0.001290   770.829466     0.000000 
  25.860000   769.000000     0.001300   769.813050     0.000000 
  25.880000   770.900000     0.001297   768.840554     0.000000 
  25.900000   776.700000     0.001287   767.906693     0.000000 
  25.920000   782.600000     0.001278   767.006970     0.000000 
  25.940000   776.700000     0.001287   766.137538     0.000000 
  25.960000   779.000000     0.001284   765.295090     0.000000 
  25.980000   771.000000     0.001297   764.476773     0.000000 
  26.000000   759.100000     0.001317   763.680115     0.000000 
  26.020000   772.000000     0.001295   762.902964     0.000000 
  26.040000   761.000000     0.001314   762.143440     0.000000 
  26.060000   767.900000     0.001302   761.399897     0.000000 
  26.080000   762.000000     0.001312   760.670888     0.000000 
  26.100000   768.000000     0.001302   759.955134     0.000000 
  26.120000   788.400000     0.001268   759.251506     0.000000 
  26.140000   788.400000     0.001268   758.559001     0.000000 
  26.160000   775.000000     0.001290   757.876727     0.000000 
  26.180000   780.000000     0.001282   757.203888     0.000000 
  26.200000   770.900000     0.001297   756.539773     0.000000 
  26.220000   779.700000     0.001283   755.883742     0.000000 
  26.240000   780.000000     0.001282   755.235222     0.000000 
  26.260000   794.300000     0.001259   754.593698     0.000000 
  26.280000   797.200000     0.001254   753.958703     0.000000 
  26.300000   794.300000     0.001259   753.329815     0.000000 
  26.320000   782.600000     0.001278   752.706654     0.000000 
  26.340000   779.700000     0.001283   752.088872     0.000000 
  26.360000   785.500000     0.001273   751.476154     0.000000 
  26.380000   791.400000     0.001264   750.868214     0.000000 
  26.400000   794.300000     0.001259   750.264791     0.000000 
  26.420000   785.500000     0.001273   749.665644     0.000000 
  26.440000   770.900000     0.001297   749.070555     0.000000 
  26.460000   785.500000     0.001273   748.479324     0.000000 
  26.480000   785.500000     0.001273   747.891768     0.000000 
  26.500000   773.800000     0.001292   747.307717     0.000000 
  26.520000   782.600000     0.001278   746.727017     0.000000 
  26.540000   792.000000     0.001263   746.149525     0.000000 
  26.560000   780.000000     0.001282   745.575110     0.000000 
  26.580000   787.000000     0.001271   745.003650     0.000000 
  26.600000   779.700000     0.001283   744.435035     0.000000 
  26.620000   785.500000     0.001273   743.869161     0.000000 
  26.640000   800.200000     0.001250   743.305934     0.000000 
  26.660000   788.400000     0.001268   742.745267     0.000000 
  26.680000   782.600000     0.001278   742.187078     0.000000 
  26.700000   794.300000     0.001259   741.631294     0.000000 
  26.720000   794.300000     0.001259   741.077847     0.000000 
  26.740000   782.600000     0.001278   740.526674     0.000000 
  26.760000   793.000000     0.001261   739.977718     0.000000 
  26.780000   788.400000     0.001268   739.430927     0.000000 
  26.800000   797.200000     0.001254   738.886254     0.000000 
  26.820000   803.100000     0.001245   738.343656     0.000000 
  26.840000   803.100000     0.001245   737.803095     0.000000 
  26.860000   797.200000     0.001254   737.264539     0.000000 
  26.880000   791.400000     0.001264   736.727957     0.000000 
  26.900000   791.400000     0.001264   736.193326     0.000000 
  26.920000   800.200000     0.001250   735.660626     0.000000 
  26.940000   788.400000     0.001268   735.129843     0.000000 
  26.960000   806.000000     0.001241   734.600966     0.000000 
  26.980000   809.000000     0.001236   734.073993     0.000000 
  27.000000   803.100000     0.001245   733.548924     0.000000 
  27.020000   791.400000     0.001264   733.025770     0.000000 
  27.040000   779.700000     0.001283   732.504545     0.000000 
  27.060000   770.900000     0.001297   731.985276     0.000000 
  27.080000   776.700000     0.001287   731.467997     0.000000 
  27.100000   785.500000     0.001273   730.952754     0.000000 
  27.120000   797.200000     0.001254   730.439607     0.000000 
  27.140000   794.300000     0.001259   729.928632     0.000000 
  27.160000   782.600000     0.001278   729.419924     0.000000 
  27.180000   779.700000     0.001283   728.913604     0.000000 
  27.200000   788.400000     0.001268   728.409819     0.000000 
  27.220000   767.000000     0.001304   727.908755     0.000000 
  27.240000   758.000000     0.001319   727.410643     0.000000 
  27.260000   752.700000     0.001329   726.646336     0.000000 
  27.280000   764.200000     0.001309   726.160362     0.000000 
  27.300000   772.800000     0.001294   725.402556     0.000000 
  27.320000   772.800000     0.001294   724.930426     0.000000 
  27.340000   761.300000     0.001314   724.463493     0.000000 
  27.360000   752.700000     0.001329   724.002994     0.000000 
  27.380000   757.000000     0.001321   723.551048     0.000000 
  27.400000   761.300000     0.001314   723.111832     0.000000 
  27.420000   775.600000     0.001289   722.694302     0.000000 
  27.440000   765.000000     0.001307   722.317743     0.000000 
  27.460000   758.400000     0.001319   722.021498     0.000000 
  27.480000   749.900000     0.001334   721.878850     0.000000 
  27.500000   752.700000     0.001329   722.011123     0.000000 
  27.520000   755.600000     0.001323   722.591737     0.000000 
  27.540000   764.200000     0.001309   723.824627     0.000000 
  27.560000   774.000000     0.001292   725.883853     0.000000 
  27.580000   766.000000     0.001305   728.817385     0.000000 
  27.600000   755.600000     0.001323   732.443719     0.000000 
  27.620000   761.300000     0.001314   736.286574     0.000000 
  27.640000   767.000000     0.001304   739.585559     0.000000 
  27.660000   772.800000     0.001294   741.428405     0.000000 
  27.680000   767.000000     0.001304   741.102170     0.000000 
  27.700000   761.300000     0.001314   738.554908     0.000000 
  27.720000   758.400000     0.001319   734.436228     0.000000 
  27.740000   761.300000     0.001314   729.657883     0.000000 
  27.760000   764.200000     0.001309   725.011275     0.000000 
  27.780000   767.000000     0.001304   721.012486     0.000000 
  27.800000   761.300000     0.001314   717.879253     0.000000 
  27.820000   755.600000     0.001323   715.588137     0.000000 
  27.840000   752.700000     0.001329   713.975566     0.000000 
  27.860000   761.300000     0.001314   712.837178     0.000000 
  27.880000   764.000000     0.001309   711.993584     0.000000 
  27.900000   769.900000     0.001299   711.316480     0.000000 
  27.920000   764.200000     0.001309   710.727006     0.000000 
  27.940000   758.400000     0.001319   710.182227     0.000000 
  27.960000   758.400000     0.001319   709.660881     0.000000 
  27.980000   761.300000     0.001314   709.153051     0.000000 
  28.000000   775.600000     0.001289   708.654131     0.000000 
  28.020000   769.900000     0.001299   708.161822     0.000000 
  28.040000   761.300000     0.001314   707.674804     0.000000 
  28.060000   755.600000     0.001323   707.192202     0.000000 
  28.080000   755.600000     0.001323   706.713374     0.000000 
  28.100000   761.300000     0.001314   706.237826     0.000000 
  28.120000   769.900000     0.001299   705.765166     0.000000 
  28.140000   770.000000     0.001299   705.295079     0.000000 
  28.160000   758.400000     0.001319   704.827309     0.000000 
  28.180000   758.000000     0.001319   704.361648     0.000000 
  28.200000   747.000000     0.001339   703.897923     0.000000 
  28.220000   761.300000     0.001314   703.435991     0.000000 
  28.240000   767.000000     0.001304   702.975733     0.000000 
  28.260000   767.000000     0.001304   702.517049     0.000000 
  28.280000   761.000000     0.001314   702.059852     0.000000 
  28.300000   752.000000     0.001330   701.604072     0.000000 
  28.320000   755.600000     0.001323   701.149645     0.000000 
  28.340000   769.900000     0.001299   700.696519     0.000000 
  28.360000   761.300000     0.001314   700.244648     0.000000 
  28.380000   755.600000     0.001323   699.793992     0.000000 
  28.400000   765.000000     0.001307   699.344516     0.000000 
  28.420000   776.400000     0.001288   698.896189     0.000000 
  28.440000   773.000000     0.001294   698.448986     0.000000 
  28.460000   754.600000     0.001325   698.002882     0.000000 
  28.480000   743.700000     0.001345   697.557857     0.000000 
  28.500000   750.000000     0.001333   697.113892     0.000000 
  28.520000   754.600000     0.001325   696.670970     0.000000 
  28.540000   738.200000     0.001355   696.229077     0.000000 
  28.560000   730.100000     0.001370   695.788198     0.000000 
  28.580000   738.200000     0.001355   695.348324     0.000000 
  28.600000   746.400000     0.001340   694.909441     0.000000 
  28.620000   751.900000     0.001330   694.471541     0.000000 
  28.640000   743.700000     0.001345   694.034615     0.000000 
  28.660000   741.000000     0.001350   693.598654     0.000000 
  28.680000   751.900000     0.001330   693.163650     0.000000 
  28.700000   751.900000     0.001330   692.729598     0.000000 
  28.720000   749.100000     0.001335   692.296490     0.000000 
  28.740000   757.300000     0.001320   691.864322     0.000000 
  28.760000   762.800000     0.001311   691.433086     0.000000 
  28.780000   769.000000     0.001300   691.002779     0.000000 
  28.800000   757.300000     0.001320   690.573395     0.000000 
  28.820000   757.300000     0.001320   690.144931     0.000000 
  28.840000   757.300000     0.001320   689.717382     0.000000 
  28.860000   743.000000     0.001346   689.290744     0.000000 
  28.880000   752.000000     0.001330   688.865014     0.000000 
  28.900000   743.700000     0.001345   688.440188     0.000000 
  28.920000   754.600000     0.001325   688.016263     0.000000 
  28.940000   751.900000     0.001330   687.593237     0.000000 
  28.960000   738.200000     0.001355   687.171105     0.000000 
  28.980000   735.500000     0.001360   686.749866     0.000000 
  29.000000   741.000000     0.001350   686.329516     0.000000 
  29.020000   751.900000     0.001330   685.910054     0.000000 
  29.040000   749.100000     0.001335   685.491477     0.000000 
  29.060000   746.000000     0.001340   685.073782     0.000000 
  29.080000   730.100000     0.001370   684.656967     0.000000 
  29.100000   738.200000     0.001355   684.241030     0.000000 
  29.120000   743.700000     0.001345   683.825970     0.000000 
  29.140000   737.000000     0.001357   683.411784     0.000000 
  29.160000   731.000000     0.001368   682.998470     0.000000 
  29.180000   741.000000     0.001350   686.706298     0.000000 
  29.200000   746.400000     0.001340   686.363639     0.000000 
  29.220000   739.000000     0.001353   686.023589     0.000000 
  29.240000   733.800000     0.001363   685.686207     0.000000 
  29.260000   737.000000     0.001357   685.351552     0.000000 
  29.280000   727.300000     0.001375   685.019686     0.000000 
  29.300000   733.000000     0.001364   684.690676     0.000000 
  29.320000   732.800000     0.001365   684.364591     0.000000 
  29.340000   725.900000     0.001378   684.041501     0.000000 
  29.360000   715.400000     0.001398   683.721483     0.000000 
  29.380000   714.000000     0.001401   683.404614     0.000000 
  29.400000   725.900000     0.001378   683.090977     0.000000 
  29.420000   733.800000     0.001363   682.780658     0.000000 
  29.440000   725.900000     0.001378   682.473748     0.000000 
  29.460000   718.100000     0.001393   682.170340     0.000000 
  29.480000   713.000000     0.001403   681.870535     0.000000 
  29.500000   723.300000     0.001383   681.574435     0.000000 
  29.520000   720.700000     0.001388   681.282150     0.000000 
  29.540000   710.200000     0.001408   680.993794     0.000000 
  29.560000   718.100000     0.001393   680.709487     0.000000 
  29.580000   707.600000     0.001413   680.429355     0.000000 
  29.600000   712.000000     0.001404   680.153531     0.000000 
  29.620000   720.700000     0.001388   679.882154     0.000000 
  29.640000   709.000000     0.001410   679.615371     0.000000 
  29.660000   697.100000     0.001435   679.353335     0.000000 
  29.680000   702.000000     0.001425   679.096209     0.000000 
  29.700000   715.400000     0.001398   687.745590     0.000000 
  29.720000   712.800000     0.001403   687.645125     0.000000 
  29.740000   700.000000     0.001429   687.553748     0.000000 
  29.760000   699.700000     0.001429   696.486576     0.000000 
  29.780000   702.300000     0.001424   696.562676     0.000000 
  29.800000   710.200000     0.001408   696.652566     0.000000 
  29.820000   714.000000     0.001401   696.756742     0.000000 
  29.840000   699.700000     0.001429   696.875726     0.000000 
  29.860000   699.700000     0.001429   697.003582     0.000000 
  29.880000   699.700000     0.001429   697.153968     0.000000 
  29.900000   710.200000     0.001408   697.320886     0.000000 
  29.920000   703.000000     0.001422   697.504971     0.000000 
  29.940000   694.500000     0.001440   697.706893     0.000000 
  29.960000   699.700000     0.001429   697.927358     0.000000 
  29.980000   694.500000     0.001440   698.167106     0.000000 
  30.000000   702.300000     0.001424   698.426922     0.000000 
  30.020000   705.000000     0.001418   698.707631     0.000000 
  30.040000   691.900000     0.001445   699.010107     0.000000 
  30.060000   687.000000     0.001456   699.335269     0.000000 
  30.080000   689.200000     0.001451   699.684092     0.000000 
  30.100000   697.100000     0.001435   703.620347     0.000000 
  30.120000   702.300000     0.001424   704.077832     0.000000 
  30.140000   694.500000     0.001440   704.563692     0.000000 
  30.160000   690.000000     0.001449   705.079199     0.000000 
  30.180000   699.000000     0.001431   705.625703     0.000000 
  30.200000   705.000000     0.001418   706.204638     0.000000 
  30.220000   694.500000     0.001440   706.817523     0.000000 
  30.240000   691.900000     0.001445   707.465978     0.000000 
  30.260000   686.600000     0.001456   708.151722     0.000000 
  30.280000   694.500000     0.001440   708.876590     0.000000 
  30.300000   702.300000     0.001424   709.642536     0.000000 
  30.320000   702.300000     0.001424   710.451644     0.000000 
  30.340000   698.000000     0.001433   711.306142     0.000000 
  30.360000   694.500000     0.001440   712.208412     0.000000 
  30.380000   706.700000     0.001415   713.161003     0.000000 
  30.400000   706.700000     0.001415   714.166647     0.000000 
  30.420000   694.500000     0.001440   715.228277     0.000000 
  30.440000   687.100000     0.001455   716.349041     0.000000 
  30.460000   673.100000     0.001486   717.532326     0.000000 
  30.480000   682.000000     0.001466   718.781781     0.000000 
  30.500000   687.100000     0.001455   720.101338     0.000000 
  30.520000   670.300000     0.001492   721.495248     0.000000 
  30.540000   670.300000     0.001492   722.968105     0.000000 
  30.560000   681.500000     0.001467   724.524887     0.000000 
  30.580000   692.700000     0.001444   726.170994     0.000000 
  30.600000   682.000000     0.001466   727.912295     0.000000 
  30.620000   681.500000     0.001467   729.755178     0.000000 
  30.640000   686.000000     0.001458   731.706610     0.000000 
  30.660000   689.900000     0.001449   733.774204     0.000000 
  30.680000   701.100000     0.001426   735.966293     0.000000 
  30.700000   689.900000     0.001449   738.292021     0.000000 
  30.720000   675.900000     0.001480   740.761437     0.000000 
  30.740000   675.900000     0.001480   743.385617     0.000000 
  30.760000   675.900000     0.001480   746.176791     0.000000 
  30.780000   681.500000     0.001467   749.148502     0.000000 
  30.800000   684.300000     0.001461   752.315783     0.000000 
  30.820000   689.900000     0.001449   755.695368     0.000000 
  30.840000   695.500000     0.001438   759.305936     0.000000 
  30.860000   684.300000     0.001461   763.168402     0.000000 
  30.880000   681.500000     0.001467   767.306260     0.000000 
  30.900000   684.300000     0.001461   771.745985     0.000000 
  30.920000   698.300000     0.001432   776.517525     0.000000 
  30.940000   703.900000     0.001421   781.654874     0.000000 
  30.960000   706.700000     0.001415   787.196779     0.000000 
  30.980000   695.500000     0.001438   793.187583     0.000000 
  31.000000   695.500000     0.001438   799.678266     0.000000 
  31.020000   698.300000     0.001432   806.727702     0.000000 
  31.040000   709.400000     0.001410   814.404230     0.000000 
  31.060000   703.900000     0.001421   822.787592     0.000000 
  31.080000   717.800000     0.001393   831.971358     0.000000 
  31.100000   720.600000     0.001388   842.065979     0.000000 
  31.120000   723.400000     0.001382   853.585634     0.000000 
  31.140000   729.000000     0.001372   865.927519     0.000000 
  31.160000   749.000000     0.001335   879.657916     0.000000 
  31.180000   777.900000     0.001286   895.007711     0.000000 
  31.200000   782.000000     0.001279   912.263216     0.000000 
  31.220000   798.600000     0.001252   931.790892     0.000000 
  31.240000   826.000000     0.001211   954.088367     0.000000 
  31.260000   840.000000     0.001190   979.900230     0.000000 
  31.280000   873.100000     0.001145  1010.485237     0.000000 
  31.300000   910.300000     0.001099  1048.207727     0.000000 
  31.320000   967.000000     0.001034  1097.748924     0.000000 
  31.340000   999.000000     0.001001  1168.344655     0.000000 
  31.360000  1059.300000     0.000944  1277.416890     0.000000 
  31.380000  1129.700000     0.000885  1455.539769     0.000000 
  31.400000  1229.000000     0.000814  1751.628133     0.000000 
  31.420000  1410.000000     0.000709  2235.588217     0.000000 
  31.440000  1685.000000     0.000593  2994.080773     0.000000 
  31.460000  2124.100000     0.000471  4114.914273     0.000000 
  31.480000  3089.700000     0.000324  5658.443190     0.000000 
  31.500000  5600.000000     0.000179  7620.404380     0.000000 
  31.520000  7144.800000     0.000140  9897.197514     0.000000 
  31.540000  10041.400000     0.000100  12266.715688     0.000000 
  31.560000  13903.400000     0.000072  14394.199901     0.000000 
  31.580000  16800.000000     0.000060  15876.419672     0.000000 
  31.600000  18344.800000     0.000055  16357.816753     0.000000 
  31.620000  17379.300000     0.000058  15710.181759     0.000000 
  31.640000  16027.600000     0.000062  14117.605060     0.000000 
  31.660000  13517.200000     0.000074  11958.300060     0.000000 
  31.680000  11393.100000     0.000088  9629.319515     0.000000 
  31.700000  8303.400000     0.000120  7446.681284     0.000000 
  31.720000  5986.200000     0.000167  5610.423195     0.000000 
  31.740000  4248.300000     0.000235  4204.126631     0.000000 
  31.760000  3089.700000     0.000324  3217.936330     0.000000 
  31.780000  2124.100000     0.000471  2584.853449     0.000000 
  31.800000  1650.000000     0.000606  2217.096143     0.000000 
  31.820000  1552.000000     0.000644  2032.668624     0.000000 
  31.840000  1550.000000     0.000645  1969.228984     0.000000 
  31.860000  1558.000000     0.000642  1988.104100     0.000000 
  31.880000  1560.000000     0.000641  2073.815735     0.000000 
  31.900000  1698.000000     0.000589  2234.259502     0.000000 
  31.920000  1799.000000     0.000556  2505.051838     0.000000 
  31.940000  2067.000000     0.000484  2959.316099     0.000000 
  31.960000  2538.000000     0.000394  3721.264928     0.000000 
  31.980000  4055.200000     0.000247  4978.114565     0.000000 
  32.000000  5406.900000     0.000185  6980.752410     0.000000 
  32.020000  8303.400000     0.000120  10021.284531     0.000000 
  32.040000  14482.800000     0.000069  14378.156233     0.000000 
  32.060000  21434.500000     0.000047  20228.741362     0.000000 
  32.080000  31475.900000     0.000032  27542.754689     0.000000 
  32.100000  38813.800000     0.000026  35980.674881     0.000000 
  32.120000  43834.500000     0.000023  44826.594321     0.000000 
  32.140000  46151.700000     0.000022  53003.413261     0.000000 
  32.160000  50131.000000     0.000020  59262.409712     0.000000 
  32.180000  52975.000000     0.000019  62565.215584     0.000000 
  32.200000  54518.000000     0.000018  62388.393420     0.000000 
  32.220000  53484.000000     0.000019  58761.248005     0.000000 
  32.240000  48366.000000     0.000021  52268.767503     0.000000 
  32.260000  40674.000000     0.000025  43992.131867     0.000000 
  32.280000  32870.000000     0.000030  35179.002581     0.000000 
  32.300000  26106.000000     0.000038  26876.497205     0.000000 
  32.320000  19937.000000     0.000050  19767.882554     0.000000 
  32.340000  14310.000000     0.000070  14173.479350     0.000000 
  32.360000  9624.000000     0.000104  10127.031823     0.000000 
  32.380000  6481.000000     0.000154  7482.160295     0.000000 
  32.400000  4534.000000     0.000221  6017.871391     0.000000 
  32.420000  3761.000000     0.000266  5516.618979     0.000000 
  32.440000  4175.000000     0.000240  5799.963344     0.000000 
  32.460000  5478.000000     0.000183  6723.495626     0.000000 
  32.480000  7485.000000     0.000134  8144.986660     0.000000 
  32.500000  10437.000000     0.000096  9886.354157     0.000000 
  32.520000  13369.000000     0.000075  11707.397648     0.000000 
  32.540000  15902.000000     0.000063  13302.289277     0.000000 
  32.560000  17040.000000     0.000059  14332.628267     0.000000 
  32.580000  16460.000000     0.000061  14523.364136     0.000000 
  32.600000  14742.000000     0.000068  13799.431494     0.000000 
  32.620000  12662.000000     0.000079  12330.981961     0.000000 
  32.640000  10489.000000     0.000095  10427.556473     0.000000 
  32.660000  8257.000000     0.000121  8404.566507     0.000000 
  32.680000  5943.000000     0.000168  6510.774659     0.000000 
  32.700000  4171.000000     0.000240  4903.322966     0.000000 
  32.720000  2825.000000     0.000354  3647.983029     0.000000 
  32.740000  1915.000000     0.000522  2736.866866     0.000000 
  32.760000  1440.000000     0.000694  2116.161259     0.000000 
  32.780000  1272.000000     0.000786  1714.145884     0.000000 
  32.800000  1185.000000     0.000844  1461.987285     0.000000 
  32.820000  1074.000000     0.000931  1304.696083     0.000000 
  32.840000  1017.600000     0.000983  1203.793534     0.000000 
  32.860000   959.300000     0.001042  1135.058537     0.000000 
  32.880000   936.900000     0.001067  1084.507226     0.000000 
  32.900000   883.100000     0.001132  1044.584287     0.000000 
  32.920000   865.200000     0.001156  1011.363610     0.000000 
  32.940000   842.800000     0.001187   982.801503     0.000000 
  32.960000   811.400000     0.001232   957.774121     0.000000 
  32.980000   806.900000     0.001239   935.597093     0.000000 
  33.000000   771.000000     0.001297   915.803043     0.000000 
  33.020000   757.600000     0.001320   898.044773     0.000000 
  33.040000   730.700000     0.001369   882.042430     0.000000 
  33.060000   726.200000     0.001377   867.574081     0.000000 
  33.080000   716.000000     0.001397   854.455318     0.000000 
  33.100000   717.200000     0.001394   842.532950     0.000000 
  33.120000   703.800000     0.001421   831.679577     0.000000 
  33.140000   685.900000     0.001458   821.789174     0.000000 
  33.160000   676.900000     0.001477   812.773869     0.000000 
  33.180000   676.900000     0.001477   804.561541     0.000000 
  33.200000   667.900000     0.001497   797.094058     0.000000 
  33.220000   672.400000     0.001487   790.326245     0.000000 
  33.240000   650.000000     0.001538   784.225560     0.000000 
  33.260000   638.000000     0.001567   778.773007     0.000000 
  33.280000   645.500000     0.001549   773.966511     0.000000 
  33.300000   641.000000     0.001560   769.829743     0.000000 
  33.320000   636.600000     0.001571   766.432869     0.000000 
  33.340000   649.700000     0.001539   763.937539     0.000000 
  33.360000   645.500000     0.001549   762.686507     0.000000 
  33.380000   649.700000     0.001539   763.365215     0.000000 
  33.400000   645.500000     0.001549   767.260261     0.000000 
  33.420000   657.000000     0.001522   776.613767     0.000000 
  33.440000   654.500000     0.001528   795.008817     0.000000 
  33.460000   664.000000     0.001506   827.618794     0.000000 
  33.480000   670.000000     0.001493   881.045184     0.000000 
  33.500000   688.000000     0.001453   962.430573     0.000000 
  33.520000   720.700000     0.001388  1077.661181     0.000000 
  33.540000   770.000000     0.001299  1228.809753     0.000000 
  33.560000   834.500000     0.001198  1411.412845     0.000000 
  33.580000   925.500000     0.001080  1612.455191     0.000000 
  33.600000  1012.800000     0.000987  1809.806373     0.000000 
  33.620000  1073.400000     0.000932  1973.680730     0.000000 
  33.640000  1063.400000     0.000940  2071.667297     0.000000 
  33.660000  1034.500000     0.000967  2079.741942     0.000000 
  33.680000   984.800000     0.001015  1995.149177     0.000000 
  33.700000   955.900000     0.001046  1838.164558     0.000000 
  33.720000   894.000000     0.001119  1640.505112     0.000000 
  33.740000   844.100000     0.001185  1433.130229     0.000000 
  33.760000   790.300000     0.001265  1240.049785     0.000000 
  33.780000   752.000000     0.001330  1076.278650     0.000000 
  33.800000   727.000000     0.001376   948.012248     0.000000 
  33.820000   702.000000     0.001425   854.375383     0.000000 
  33.840000   686.900000     0.001456   790.066807     0.000000 
  33.860000   658.000000     0.001520   748.017965     0.000000 
  33.880000   667.900000     0.001497   721.385117     0.000000 
  33.900000   660.000000     0.001515   704.628672     0.000000 
  33.920000   649.000000     0.001541   693.808693     0.000000 
  33.940000   641.000000     0.001560   686.398996     0.000000 
  33.960000   645.500000     0.001549   680.912936     0.000000 
  33.980000   645.500000     0.001549   676.533310     0.000000 
  34.000000   641.000000     0.001560   672.830855     0.000000 
  34.020000   645.500000     0.001549   669.582695     0.000000 
  34.040000   651.000000     0.001536   662.628413     0.000000 
  34.060000   645.500000     0.001549   660.044111     0.000000 
  34.080000   650.500000     0.001537   657.676405     0.000000 
  34.100000   648.000000     0.001543   655.492045     0.000000 
  34.120000   640.600000     0.001561   653.465282     0.000000 
  34.140000   638.100000     0.001567   651.575380     0.000000 
  34.160000   645.500000     0.001549   649.805313     0.000000 
  34.180000   645.500000     0.001549   648.140869     0.000000 
  34.200000   633.100000     0.001580   646.570123     0.000000 
  34.220000   635.600000     0.001573   645.082976     0.000000 
  34.240000   645.500000     0.001549   643.670820     0.000000 
  34.260000   639.000000     0.001565   642.326272     0.000000 
  34.280000   633.100000     0.001580   641.042964     0.000000 
  34.300000   643.000000     0.001555   639.815369     0.000000 
  34.320000   638.000000     0.001567   638.638667     0.000000 
  34.340000   643.000000     0.001555   637.508634     0.000000 
  34.360000   648.000000     0.001543   636.421549     0.000000 
  34.380000   643.000000     0.001555   635.374118     0.000000 
  34.400000   633.100000     0.001580   634.363416     0.000000 
  34.420000   633.100000     0.001580   633.386833     0.000000 
  34.440000   634.000000     0.001577   632.442028     0.000000 
  34.460000   645.500000     0.001549   631.526901     0.000000 
  34.480000   655.400000     0.001526   630.639554     0.000000 
  34.500000   653.000000     0.001531   629.778269     0.000000 
  34.520000   648.000000     0.001543   628.941488     0.000000 
  34.540000   642.000000     0.001558   628.127789     0.000000 
  34.560000   650.500000     0.001537   627.335875     0.000000 
  34.580000   655.400000     0.001526   626.564559     0.000000 
  34.600000   648.000000     0.001543   625.812748     0.000000 
  34.620000   640.600000     0.001561   625.079439     0.000000 
  34.640000   638.100000     0.001567   615.604861     0.000000 
  34.660000   645.500000     0.001549   615.045243     0.000000 
  34.680000   648.000000     0.001543   614.498250     0.000000 
  34.700000   645.500000     0.001549   605.125758     0.000000 
  34.720000   653.000000     0.001531   604.742682     0.000000 
  34.740000   655.400000     0.001526   604.367146     0.000000 
  34.760000   647.000000     0.001546   603.998748     0.000000 
  34.780000   640.600000     0.001561   604.636458     0.000000 
  34.800000   645.500000     0.001549   604.296035     0.000000 
  34.820000   653.000000     0.001531   604.079523     0.000000 
  34.840000   648.000000     0.001543   603.753462     0.000000 
  34.860000   640.600000     0.001561   603.433351     0.000000 
  34.880000   636.000000     0.001572   603.118955     0.000000 
  34.900000   644.000000     0.001553   602.810056     0.000000 
  34.920000   635.600000     0.001573   602.506456     0.000000 
  34.940000   638.100000     0.001567   602.207971     0.000000 
  34.960000   645.500000     0.001549   601.914435     0.000000 
  34.980000   650.500000     0.001537   601.625694     0.000000 
  35.000000   648.000000     0.001543   601.341611     0.000000 
  35.020000   638.100000     0.001567   601.062059     0.000000 
  35.040000   638.100000     0.001567   600.786926     0.000000 
  35.060000   648.000000     0.001543   600.516114     0.000000 
  35.080000   653.000000     0.001531   596.767867     0.000000 
  35.100000   650.500000     0.001537   596.560328     0.000000 
  35.120000   640.000000     0.001563   596.355604     0.000000 
  35.140000   638.000000     0.001567   596.153690     0.000000 
  35.160000   629.000000     0.001590   596.223988     0.000000 
  35.180000   646.000000     0.001548   596.031692     0.000000 
  35.200000   646.000000     0.001548   595.842369     0.000000 
  35.220000   634.500000     0.001576   595.656086     0.000000 
  35.240000   623.400000     0.001604   595.472936     0.000000 
  35.260000   629.000000     0.001590   595.293050     0.000000 
  35.280000   645.500000     0.001549   595.116616     0.000000 
  35.300000   640.000000     0.001563   594.943921     0.000000 
  35.320000   647.000000     0.001546   594.775447     0.000000 
  35.340000   634.500000     0.001576   594.666289     0.000000 
  35.360000   623.400000     0.001604   594.510417     0.000000 
  35.380000   645.000000     0.001550   595.865871     0.000000 
  35.400000   644.000000     0.001553   597.012505     0.000000 
  35.420000   632.000000     0.001582   596.947524     0.000000 
  35.440000   629.000000     0.001590   597.067978     0.000000 
  35.460000   629.000000     0.001590   597.109639     0.000000 
  35.480000   656.600000     0.001523   597.244386     0.000000 
  35.500000   667.600000     0.001498   597.506344     0.000000 
  35.520000   700.700000     0.001427   597.927853     0.000000 
  35.540000   733.800000     0.001363   598.529383     0.000000 
  35.560000   800.000000     0.001250   599.307333     0.000000 
  35.580000   877.200000     0.001140   600.222941     0.000000 
  35.600000   949.000000     0.001054   601.195823     0.000000 
  35.620000  1031.700000     0.000969   602.104564     0.000000 
  35.640000  1097.900000     0.000911   602.797489     0.000000 
  35.660000  1114.500000     0.000897   603.123144     0.000000 
  35.680000  1109.000000     0.000902   602.987424     0.000000 
  35.700000  1053.800000     0.000949   602.405211     0.000000 
  35.720000   987.600000     0.001013   601.491431     0.000000 
  35.740000   937.900000     0.001066   600.402308     0.000000 
  35.760000   871.700000     0.001147   599.284038     0.000000 
  35.780000   800.000000     0.001250   598.248521     0.000000 
  35.800000   750.300000     0.001333   597.365715     0.000000 
  35.820000   693.000000     0.001443   596.665000     0.000000 
  35.840000   662.100000     0.001510   596.143088     0.000000 
  35.860000   656.600000     0.001523   595.775748     0.000000 
  35.880000   634.500000     0.001576   595.529727     0.000000 
  35.900000   634.500000     0.001576   595.371988     0.000000 
  35.920000   621.000000     0.001610   595.275061     0.000000 
  35.940000   617.900000     0.001618   595.218887     0.000000 
  35.960000   623.400000     0.001604   595.190369     0.000000 
  35.980000   612.400000     0.001633   595.181908     0.000000 
  36.000000   615.000000     0.001626   595.189895     0.000000 
  36.020000   617.900000     0.001618   595.213696     0.000000 
  36.040000   606.900000     0.001648   595.255364     0.000000 
  36.060000   623.400000     0.001604   595.320116     0.000000 
  36.080000   617.900000     0.001618   595.417488     0.000000 
  36.100000   629.000000     0.001590   595.562860     0.000000 
  36.120000   629.000000     0.001590   595.778726     0.000000 
  36.140000   647.000000     0.001546   596.094696     0.000000 
  36.160000   662.100000     0.001510   596.544966     0.000000 
  36.180000   722.800000     0.001384   597.162223     0.000000 
  36.200000   811.000000     0.001233   597.589617     0.000000 
  36.220000   949.000000     0.001054   598.588044     0.000000 
  36.240000  1136.600000     0.000880   599.737601     0.000000 
  36.260000  1340.700000     0.000746   600.962024     0.000000 
  36.280000  1495.200000     0.000669   602.144289     0.000000 
  36.300000  1589.000000     0.000629   603.135858     0.000000 
  36.320000  1572.000000     0.000636   603.783825     0.000000 
  36.340000  1528.300000     0.000654   603.984602     0.000000 
  36.360000  1406.900000     0.000711   603.738595     0.000000 
  36.380000  1313.100000     0.000762   603.150505     0.000000 
  36.400000  1191.700000     0.000839   602.374896     0.000000 
  36.420000  1027.000000     0.000974   601.562341     0.000000 
  36.440000   937.900000     0.001066   600.933206     0.000000 
  36.460000   844.100000     0.001185   600.365239     0.000000 
  36.480000   739.300000     0.001353   599.996077     0.000000 
  36.500000   717.200000     0.001394   599.829654     0.000000 
  36.520000   667.600000     0.001498   599.846844     0.000000 
  36.540000   651.000000     0.001536   600.017317     0.000000 
  36.560000   640.000000     0.001563   600.309301     0.000000 
  36.580000   629.000000     0.001590   600.695718     0.000000 
  36.600000   640.000000     0.001563   601.156757     0.000000 
  36.620000   629.000000     0.001590   601.679879     0.000000 
  36.640000   623.400000     0.001604   602.258511     0.000000 
  36.660000   617.900000     0.001618   602.890400     0.000000 
  36.680000   629.000000     0.001590   603.576183     0.000000 
  36.700000   627.000000     0.001595   604.318372     0.000000 
  36.720000   606.900000     0.001648   605.120746     0.000000 
  36.740000   606.900000     0.001648   605.988034     0.000000 
  36.760000   612.400000     0.001633   606.925799     0.000000 
  36.780000   617.900000     0.001618   607.940436     0.000000 
  36.800000   612.400000     0.001633   609.039241     0.000000 
  36.820000   609.000000     0.001642   610.230523     0.000000 
  36.840000   606.900000     0.001648   611.523756     0.000000 
  36.860000   624.000000     0.001603   612.929768     0.000000 
  36.880000   617.900000     0.001618   614.460973     0.000000 
  36.900000   617.900000     0.001618   616.131649     0.000000 
  36.920000   631.000000     0.001585   617.958285     0.000000 
  36.940000   615.000000     0.001626   619.960002     0.000000 
  36.960000   617.000000     0.001621   622.159077     0.000000 
  36.980000   620.000000     0.001613   624.581589     0.000000 
  37.000000   622.300000     0.001607   627.258266     0.000000 
  37.020000   629.000000     0.001590   630.225468     0.000000 
  37.040000   622.300000     0.001607   633.526665     0.000000 
  37.060000   625.700000     0.001598   637.214408     0.000000 
  37.080000   637.000000     0.001570   641.353562     0.000000 
  37.100000   629.000000     0.001590   646.027149     0.000000 
  37.120000   629.000000     0.001590   651.348046     0.000000 
  37.140000   628.000000     0.001592   657.483476     0.000000 
  37.160000   635.600000     0.001573   664.705872     0.000000 
  37.180000   645.500000     0.001549   673.563181     0.000000 
  37.200000   662.000000     0.001511   684.792644     0.000000 
  37.220000   662.100000     0.001510   700.055772     0.000000 
  37.240000   676.000000     0.001479   722.166008     0.000000 
  37.260000   695.200000     0.001438   755.835818     0.000000 
  37.280000   706.000000     0.001416   808.485924     0.000000 
  37.300000   734.900000     0.001361   890.649053     0.000000 
  37.320000   780.000000     0.001282  1016.246708     0.000000 
  37.340000   930.000000     0.001075  1201.259906     0.000000 
  37.360000  1260.000000     0.000794  1461.060040     0.000000 
  37.380000  1620.000000     0.000617  1806.080785     0.000000 
  37.400000  2160.000000     0.000463  2236.498979     0.000000 
  37.420000  2760.000000     0.000362  2737.184121     0.000000 
  37.440000  3630.000000     0.000275  3274.365141     0.000000 
  37.460000  4035.900000     0.000248  3795.083266     0.000000 
  37.480000  4400.000000     0.000227  4230.592073     0.000000 
  37.500000  4460.700000     0.000224  4507.182342     0.000000 
  37.520000  4200.000000     0.000238  4568.733394     0.000000 
  37.540000  3914.500000     0.000255  4402.871204     0.000000 
  37.560000  3450.000000     0.000290  4047.416943     0.000000 
  37.580000  3004.100000     0.000333  3570.593386     0.000000 
  37.600000  2670.300000     0.000374  3045.420668     0.000000 
  37.620000  2190.000000     0.000457  2533.829904     0.000000 
  37.640000  1867.000000     0.000536  2080.166209     0.000000 
  37.660000  1486.000000     0.000673  1710.029383     0.000000 
  37.680000  1131.000000     0.000884  1432.495299     0.000000 
  37.700000   968.000000     0.001033  1244.601447     0.000000 
  37.720000   937.000000     0.001067  1136.639079     0.000000 
  37.740000   906.000000     0.001104  1096.711036     0.000000 
  37.760000   986.000000     0.001014  1113.540846     0.000000 
  37.780000   998.000000     0.001002  1177.338516     0.000000 
  37.800000  1320.000000     0.000758  1279.252293     0.000000 
  37.820000  1680.000000     0.000595  1410.328157     0.000000 
  37.840000  2070.000000     0.000483  1560.894600     0.000000 
  37.860000  2400.000000     0.000417  1721.018417     0.000000 
  37.880000  2549.000000     0.000392  1882.564015     0.000000 
  37.900000  2610.000000     0.000383  2043.776304     0.000000 
  37.920000  2490.000000     0.000402  2216.649195     0.000000 
  37.940000  2518.600000     0.000397  2432.989803     0.000000 
  37.960000  2515.000000     0.000398  2742.195132     0.000000 
  37.980000  2605.000000     0.000384  3200.098351     0.000000 
  38.000000  2973.800000     0.000336  3854.311797     0.000000 
  38.020000  3673.000000     0.000272  4729.447424     0.000000 
  38.040000  4504.000000     0.000222  5813.547843     0.000000 
  38.060000  5707.000000     0.000175  7048.089051     0.000000 
  38.080000  6866.000000     0.000146  8324.473486     0.000000 
  38.100000  7805.000000     0.000128  9489.405020     0.000000 
  38.120000  8490.000000     0.000118  10363.428238     0.000000 
  38.140000  8648.300000     0.000116  10781.070943     0.000000 
  38.160000  8335.000000     0.000120  10649.567179     0.000000 
  38.180000  7704.000000     0.000130  9990.451988     0.000000 
  38.200000  6956.000000     0.000144  8927.220281     0.000000 
  38.220000  5883.000000     0.000170  7632.186977     0.000000 
  38.240000  4797.000000     0.000208  6274.411990     0.000000 
  38.260000  4064.000000     0.000246  4989.391670     0.000000 
  38.280000  3119.000000     0.000321  3867.314236     0.000000 
  38.300000  2417.000000     0.000414  2952.745183     0.000000 
  38.320000  1842.000000     0.000543  2251.703086     0.000000 
  38.340000  1440.000000     0.000694  1743.160831     0.000000 
  38.360000  1102.000000     0.000907  1391.651643     0.000000 
  38.380000   913.000000     0.001095  1158.075150     0.000000 
  38.400000   859.000000     0.001164  1006.988476     0.000000 
  38.420000   778.000000     0.001285   910.180718     0.000000 
  38.440000   725.000000     0.001379   847.341054     0.000000 
  38.460000   703.000000     0.001422   805.008487     0.000000 
  38.480000   683.000000     0.001464   774.860078     0.000000 
  38.500000   681.000000     0.001468   752.030265     0.000000 
  38.520000   671.000000     0.001490   733.832837     0.000000 
  38.540000   670.200000     0.001492   718.657046     0.000000 
  38.560000   682.100000     0.001466   705.698727     0.000000 
  38.580000   670.200000     0.001492   694.504097     0.000000 
  38.600000   663.000000     0.001508   684.641056     0.000000 
  38.620000   657.000000     0.001522   675.931246     0.000000 
  38.640000   658.300000     0.001519   668.200375     0.000000 
  38.660000   676.100000     0.001479   661.310398     0.000000 
  38.680000   670.200000     0.001492   655.149146     0.000000 
  38.700000   673.000000     0.001486   649.623998     0.000000 
  38.720000   665.000000     0.001504   644.658070     0.000000 
  38.740000   652.400000     0.001533   640.187240     0.000000 
  38.760000   655.400000     0.001526   636.158065     0.000000 
  38.780000   655.400000     0.001526   632.526160     0.000000 
  38.800000   645.000000     0.001550   629.255041     0.000000 
  38.820000   635.000000     0.001575   626.315442     0.000000 
  38.840000   629.000000     0.001590   623.685270     0.000000 
  38.860000   620.000000     0.001613   621.350685     0.000000 
  38.880000   625.700000     0.001598   619.309211     0.000000 
  38.900000   631.700000     0.001583   617.576601     0.000000 
  38.920000   626.000000     0.001597   616.200094     0.000000 
  38.940000   620.000000     0.001613   615.281587     0.000000 
  38.960000   610.000000     0.001639   615.014092     0.000000 
  38.980000   619.800000     0.001613   615.732508     0.000000 
  39.000000   628.700000     0.001591   617.973487     0.000000 
  39.020000   634.600000     0.001576   622.526431     0.000000 
  39.040000   640.600000     0.001561   630.459366     0.000000 
  39.060000   655.400000     0.001526   643.047786     0.000000 
  39.080000   678.000000     0.001475   661.611846     0.000000 
  39.100000   691.000000     0.001447   687.213590     0.000000 
  39.120000   728.000000     0.001374   720.255367     0.000000 
  39.140000   784.000000     0.001276   760.056923     0.000000 
  39.160000   864.000000     0.001157   804.521296     0.000000 
  39.180000  1009.700000     0.000990   849.983771     0.000000 
  39.200000  1125.500000     0.000888   891.305757     0.000000 
  39.220000  1171.000000     0.000854   922.361235     0.000000 
  39.240000  1129.700000     0.000885   937.306673     0.000000 
  39.260000  1051.000000     0.000951   932.759786     0.000000 
  39.280000   997.200000     0.001003   909.560407     0.000000 
  39.300000   968.300000     0.001033   872.296141     0.000000 
  39.320000   923.000000     0.001083   827.129606     0.000000 
  39.340000   873.100000     0.001145   779.904691     0.000000 
  39.360000   815.200000     0.001227   735.227591     0.000000 
  39.380000   724.100000     0.001381   696.161234     0.000000 
  39.400000   686.900000     0.001456   664.232095     0.000000 
  39.420000   662.100000     0.001510   639.658806     0.000000 
  39.440000   646.000000     0.001548   621.732863     0.000000 
  39.460000   627.000000     0.001595   609.245575     0.000000 
  39.480000   622.000000     0.001608   600.858089     0.000000 
  39.500000   623.000000     0.001605   595.353621     0.000000 
  39.520000   622.000000     0.001608   591.762466     0.000000 
  39.540000   610.700000     0.001637   589.386675     0.000000 
  39.560000   610.700000     0.001637   587.764999     0.000000 
  39.580000   617.000000     0.001621   586.614622     0.000000 
  39.600000   614.500000     0.001627   585.773889     0.000000 
  39.620000   614.500000     0.001627   585.157673     0.000000 
  39.640000   615.000000     0.001626   584.728270     0.000000 
  39.660000   608.000000     0.001645   584.480593     0.000000 
  39.680000   602.000000     0.001661   584.439704     0.000000 
  39.700000   610.700000     0.001637   584.669711     0.000000 
  39.720000   610.000000     0.001639   585.294158     0.000000 
  39.740000   614.500000     0.001627   586.540188     0.000000 
  39.760000   615.000000     0.001626   588.730344     0.000000 
  39.780000   625.900000     0.001598   592.399461     0.000000 
  39.800000   626.000000     0.001597   598.265979     0.000000 
  39.820000   644.800000     0.001551   607.244644     0.000000 
  39.840000   663.800000     0.001506   620.367375     0.000000 
  39.860000   694.100000     0.001441   638.635004     0.000000 
  39.880000   763.000000     0.001311   662.793355     0.000000 
  39.900000   834.500000     0.001198   693.066147     0.000000 
  39.920000   868.600000     0.001151   728.894578     0.000000 
  39.940000   891.400000     0.001122   768.731095     0.000000 
  39.960000   891.400000     0.001122   809.921680     0.000000 
  39.980000   882.000000     0.001134   848.756206     0.000000 
  40.000000   880.000000     0.001136   880.934024     0.000000 
  40.020000   891.400000     0.001122   902.696241     0.000000 
  40.040000   910.300000     0.001099   912.118890     0.000000 
  40.060000   955.900000     0.001046   909.324277     0.000000 
  40.080000  1009.000000     0.000991   895.475378     0.000000 
  40.100000  1027.900000     0.000973   871.927698     0.000000 
  40.120000  1021.000000     0.000979   840.388703     0.000000 
  40.140000   955.900000     0.001046   803.438012     0.000000 
  40.160000   906.600000     0.001103   764.350011     0.000000 
  40.180000   865.000000     0.001156   726.271274     0.000000 
  40.200000   834.500000     0.001198   691.571964     0.000000 
  40.220000   826.000000     0.001211   661.677766     0.000000 
  40.240000   781.400000     0.001280   637.174384     0.000000 
  40.260000   736.000000     0.001359   617.007956     0.000000 
  40.280000   682.800000     0.001465   602.514426     0.000000 
  40.300000   660.000000     0.001515   592.139051     0.000000 
  40.320000   633.400000     0.001579   584.889124     0.000000 
  40.340000   618.300000     0.001617   579.936736     0.000000 
  40.360000   616.000000     0.001623   576.583560     0.000000 
  40.380000   606.900000     0.001648   574.292034     0.000000 
  40.400000   595.500000     0.001679   572.679541     0.000000 
  40.420000   595.500000     0.001679   571.491750     0.000000 
  40.440000   591.700000     0.001690   570.569199     0.000000 
  40.460000   595.500000     0.001679   569.816449     0.000000 
  40.480000   595.500000     0.001679   569.178055     0.000000 
  40.500000   587.900000     0.001701   568.622010     0.000000 
  40.520000   591.700000     0.001690   568.129387     0.000000 
  40.540000   582.000000     0.001718   567.688363     0.000000 
  40.560000   580.300000     0.001723   567.290981     0.000000 
  40.580000   587.900000     0.001701   566.931492     0.000000 
  40.600000   591.700000     0.001690   566.605497     0.000000 
  40.620000   587.900000     0.001701   566.309529     0.000000 
  40.640000   576.600000     0.001734   566.040810     0.000000 
  40.660000   580.500000     0.001723   565.797116     0.000000 
  40.680000   576.600000     0.001734   565.311593     0.000000 
  40.700000   586.000000     0.001706   565.116823     0.000000 
  40.720000   597.000000     0.001675   564.942835     0.000000 
  40.740000   594.000000     0.001684   564.788924     0.000000 
  40.760000   606.000000     0.001650   564.654683     0.000000 
  40.780000   602.900000     0.001659   564.539985     0.000000 
  40.800000   599.000000     0.001669   564.444988     0.000000 
  40.820000   598.000000     0.001672   564.370139     0.000000 
  40.840000   594.000000     0.001684   564.316190     0.000000 
  40.860000   602.900000     0.001659   564.231374     0.000000 
  40.880000   608.000000     0.001645   564.223611     0.000000 
  40.900000   605.200000     0.001652   562.750493     0.000000 
  40.920000   602.900000     0.001659   561.567178     0.000000 
  40.940000   611.900000     0.001634   561.681952     0.000000 
  40.960000   616.400000     0.001622   561.689305     0.000000 
  40.980000   614.100000     0.001628   561.878788     0.000000 
  41.000000   611.900000     0.001634   562.114077     0.000000 
  41.020000   609.700000     0.001640   562.405361     0.000000 
  41.040000   597.000000     0.001675   562.768688     0.000000 
  41.060000   600.000000     0.001667   563.230900     0.000000 
  41.080000   611.900000     0.001634   563.838366     0.000000 
  41.100000   620.900000     0.001611   564.671374     0.000000 
  41.120000   620.000000     0.001613   565.865902     0.000000 
  41.140000   616.400000     0.001622   567.643245     0.000000 
  41.160000   614.100000     0.001628   570.345066     0.000000 
  41.180000   620.700000     0.001611   574.466688     0.000000 
  41.200000   626.900000     0.001595   580.675507     0.000000 
  41.220000   668.000000     0.001497   589.796515     0.000000 
  41.240000   689.000000     0.001451   602.746062     0.000000 
  41.260000   788.300000     0.001269   620.401341     0.000000 
  41.280000   869.000000     0.001151   643.407175     0.000000 
  41.300000  1036.600000     0.000965   671.939921     0.000000 
  41.320000  1166.900000     0.000857   705.462669     0.000000 
  41.340000  1266.200000     0.000790   742.511860     0.000000 
  41.360000  1315.900000     0.000760   780.569576     0.000000 
  41.380000  1346.900000     0.000742   816.143641     0.000000 
  41.400000  1353.100000     0.000739   845.268429     0.000000 
  41.420000  1415.200000     0.000707   864.445211     0.000000 
  41.440000  1495.900000     0.000668   871.449149     0.000000 
  41.460000  1620.000000     0.000617   865.468290     0.000000 
  41.480000  1744.100000     0.000573   847.046290     0.000000 
  41.500000  1750.300000     0.000571   818.292815     0.000000 
  41.520000  1675.900000     0.000597   782.737272     0.000000 
  41.540000  1545.500000     0.000647   744.429221     0.000000 
  41.560000  1377.900000     0.000726   706.948476     0.000000 
  41.580000  1291.000000     0.000775   672.894436     0.000000 
  41.600000  1204.100000     0.000830   643.802833     0.000000 
  41.620000  1117.200000     0.000895   620.265994     0.000000 
  41.640000  1005.500000     0.000995   602.141216     0.000000 
  41.660000   887.600000     0.001127   588.796286     0.000000 
  41.680000   775.900000     0.001289   579.350810     0.000000 
  41.700000   707.600000     0.001413   572.876238     0.000000 
  41.720000   670.300000     0.001492   568.532411     0.000000 
  41.740000   645.500000     0.001549   565.637808     0.000000 
  41.760000   614.500000     0.001627   563.685933     0.000000 
  41.780000   614.500000     0.001627   562.327248     0.000000 
  41.800000   614.500000     0.001627   561.335389     0.000000 
  41.820000   602.100000     0.001661   560.571333     0.000000 
  41.840000   603.100000     0.001658   559.953038     0.000000 
  41.860000   608.300000     0.001644   559.433138     0.000000 
  41.880000   614.500000     0.001627   558.984193     0.000000 
  41.900000   619.000000     0.001616   558.589754     0.000000 
  41.920000   614.500000     0.001627   558.239319     0.000000 
  41.940000   598.600000     0.001671   557.925649     0.000000 
  41.960000   600.800000     0.001664   557.643385     0.000000 
  41.980000   605.400000     0.001652   557.388354     0.000000 
  42.000000   597.000000     0.001675   557.157196     0.000000 
  42.020000   598.600000     0.001671   556.947164     0.000000 
  42.040000   596.300000     0.001677   556.755995     0.000000 
  42.060000   603.100000     0.001658   556.481231     0.000000 
  42.080000   607.700000     0.001646   556.323943     0.000000 
  42.100000   616.800000     0.001621   556.180854     0.000000 
  42.120000   616.800000     0.001621   556.050983     0.000000 
  42.140000   612.200000     0.001633   555.933579     0.000000 
  42.160000   614.500000     0.001627   555.828110     0.000000 
  42.180000   616.800000     0.001621   555.734255     0.000000 
  42.200000   628.100000     0.001592   555.651924     0.000000 
  42.220000   626.000000     0.001597   555.581286     0.000000 
  42.240000   628.000000     0.001592   555.522866     0.000000 
  42.260000   628.100000     0.001592   555.477727     0.000000 
  42.280000   625.900000     0.001598   555.447859     0.000000 
  42.300000   637.200000     0.001569   555.436922     0.000000 
  42.320000   631.000000     0.001585   555.451589     0.000000 
  42.340000   618.000000     0.001618   555.503819     0.000000 
  42.360000   623.600000     0.001604   555.614379     0.000000 
  42.380000   635.000000     0.001575   555.817744     0.000000 
  42.400000   631.000000     0.001585   556.168048     0.000000 
  42.420000   638.000000     0.001567   556.744890     0.000000 
  42.440000   641.400000     0.001559   557.656650     0.000000 
  42.460000   666.200000     0.001501   559.037952     0.000000 
  42.480000   700.000000     0.001429   561.037584     0.000000 
  42.500000   748.300000     0.001336   563.794348     0.000000 
  42.520000   844.800000     0.001184   567.401368     0.000000 
  42.540000   980.000000     0.001020   571.863629     0.000000 
  42.560000  1129.700000     0.000885   577.057382     0.000000 
  42.580000  1279.300000     0.000782   582.700818     0.000000 
  42.600000  1351.700000     0.000740   588.343009     0.000000 
  42.620000  1375.900000     0.000727   593.378807     0.000000 
  42.640000  1337.200000     0.000748   597.113592     0.000000 
  42.660000  1322.800000     0.000756   598.918940     0.000000 
  42.680000  1339.700000     0.000746   598.460423     0.000000 
  42.700000  1374.000000     0.000728   595.841857     0.000000 
  42.720000  1370.700000     0.000730   591.536284     0.000000 
  42.740000  1334.500000     0.000749   586.191193     0.000000 
  42.760000  1225.900000     0.000816   580.456370     0.000000 
  42.780000  1091.400000     0.000916   574.878363     0.000000 
  42.800000   982.800000     0.001018   569.849622     0.000000 
  42.820000   905.200000     0.001105   565.597457     0.000000 
  42.840000   816.000000     0.001225   562.201031     0.000000 
  42.860000   772.000000     0.001295   559.557979     0.000000 
  42.880000   747.000000     0.001339   557.701148     0.000000 
  42.900000   677.600000     0.001476   556.427383     0.000000 
  42.920000   651.700000     0.001534   555.606341     0.000000 
  42.940000   643.000000     0.001555   555.132930     0.000000 
  42.960000   627.000000     0.001595   554.891522     0.000000 
  42.980000   612.000000     0.001634   560.666135     0.000000 
  43.000000   605.200000     0.001652   561.047086     0.000000 
  43.020000   610.300000     0.001639   561.708624     0.000000 
  43.040000   625.900000     0.001598   562.689489     0.000000 
  43.060000   661.400000     0.001512   564.021732     0.000000 
  43.080000   709.700000     0.001409   565.711143     0.000000 
  43.100000   796.600000     0.001255   567.718618     0.000000 
  43.120000   840.000000     0.001190   569.946089     0.000000 
  43.140000   893.100000     0.001120   572.229813     0.000000 
  43.160000   902.800000     0.001108   574.342870     0.000000 
  43.180000   888.300000     0.001126   576.012513     0.000000 
  43.200000   857.000000     0.001167   576.968214     0.000000 
  43.220000   837.900000     0.001193   577.029826     0.000000 
  43.240000   870.000000     0.001149   576.192249     0.000000 
  43.260000   875.000000     0.001143   577.205425     0.000000 
  43.280000   900.000000     0.001111   575.214787     0.000000 
  43.300000   884.500000     0.001131   573.036960     0.000000 
  43.320000   863.800000     0.001158   570.900012     0.000000 
  43.340000   817.200000     0.001224   568.969433     0.000000 
  43.360000   760.300000     0.001315   567.344641     0.000000 
  43.380000   739.700000     0.001352   566.064393     0.000000 
  43.400000   698.300000     0.001432   565.119208     0.000000 
  43.420000   706.000000     0.001416   564.467856     0.000000 
  43.440000   700.000000     0.001429   564.053922     0.000000 
  43.460000   671.000000     0.001490   563.819180     0.000000 
  43.480000   642.000000     0.001558   563.712204     0.000000 
  43.500000   619.000000     0.001616   563.692322     0.000000 
  43.520000   614.300000     0.001628   563.730070     0.000000 
  43.540000   610.300000     0.001639   563.805615     0.000000 
  43.560000   605.200000     0.001652   563.906417     0.000000 
  43.580000   605.200000     0.001652   564.024948     0.000000 
  43.600000   612.000000     0.001634   564.156866     0.000000 
  43.620000   605.200000     0.001652   564.299727     0.000000 
  43.640000   607.300000     0.001647   564.452166     0.000000 
  43.660000   602.600000     0.001659   564.613410     0.000000 
  43.680000   597.900000     0.001673   564.783010     0.000000 
  43.700000   600.300000     0.001666   564.960701     0.000000 
  43.720000   602.600000     0.001659   565.146333     0.000000 
  43.740000   609.700000     0.001640   565.339828     0.000000 
  43.760000   597.900000     0.001673   565.541165     0.000000 
  43.780000   594.000000     0.001684   565.750365     0.000000 
  43.800000   593.200000     0.001686   565.967491     0.000000 
  43.820000   600.300000     0.001666   566.192633     0.000000 
  43.840000   602.600000     0.001659   566.425914     0.000000 
  43.860000   595.600000     0.001679   566.667481     0.000000 
  43.880000   590.900000     0.001692   566.917507     0.000000 
  43.900000   586.200000     0.001706   567.176187     0.000000 
  43.920000   593.200000     0.001686   567.443739     0.000000 
  43.940000   589.000000     0.001698   567.720401     0.000000 
  43.960000   588.000000     0.001701   568.006433     0.000000 
  43.980000   581.000000     0.001721   568.302115     0.000000 
  44.000000   586.200000     0.001706   568.607748     0.000000 
  44.020000   594.000000     0.001684   568.923656     0.000000 
  44.040000   593.200000     0.001686   569.250182     0.000000 
  44.060000   586.200000     0.001706   569.587692     0.000000 
  44.080000   584.000000     0.001712   569.936574     0.000000 
  44.100000   590.900000     0.001692   570.297242     0.000000 
  44.120000   595.600000     0.001679   570.670132     0.000000 
  44.140000   597.900000     0.001673   571.055707     0.000000 
  44.160000   586.200000     0.001706   571.454458     0.000000 
  44.180000   579.200000     0.001727   571.866902     0.000000 
  44.200000   581.500000     0.001720   572.293588     0.000000 
  44.220000   595.600000     0.001679   572.735096     0.000000 
  44.240000   590.900000     0.001692   573.192041     0.000000 
  44.260000   586.200000     0.001706   573.789046     0.000000 
  44.280000   586.200000     0.001706   574.280480     0.000000 
  44.300000   590.900000     0.001692   574.741016     0.000000 
  44.320000   586.200000     0.001706   575.268949     0.000000 
  44.340000   579.200000     0.001727   575.815991     0.000000 
  44.360000   581.500000     0.001720   576.383008     0.000000 
  44.380000   588.600000     0.001699   576.918490     0.000000 
  44.400000   590.900000     0.001692   577.528985     0.000000 
  44.420000   592.000000     0.001689   578.162372     0.000000 
  44.440000   583.900000     0.001713   578.943137     0.000000 
  44.460000   583.900000     0.001713   579.627293     0.000000 
  44.480000   587.000000     0.001704   580.468381     0.000000 
  44.500000   593.200000     0.001686   581.208443     0.000000 
  44.520000   590.900000     0.001692   581.977711     0.000000 
  44.540000   586.200000     0.001706   582.777690     0.000000 
  44.560000   574.500000     0.001741   583.609983     0.000000 
  44.580000   583.900000     0.001713   584.476306     0.000000 
  44.600000   590.900000     0.001692   585.378489     0.000000 
  44.620000   590.900000     0.001692   586.318490     0.000000 
  44.640000   586.200000     0.001706   587.298405     0.000000 
  44.660000   576.400000     0.001735   588.320480     0.000000 
  44.680000   571.400000     0.001750   589.387122     0.000000 
  44.700000   571.400000     0.001750   590.500917     0.000000 
  44.720000   579.000000     0.001727   591.664642     0.000000 
  44.740000   586.500000     0.001705   592.881285     0.000000 
  44.760000   586.500000     0.001705   594.154063     0.000000 
  44.780000   576.400000     0.001735   595.486443     0.000000 
  44.800000   571.400000     0.001750   596.882170     0.000000 
  44.820000   568.900000     0.001758   598.345287     0.000000 
  44.840000   568.900000     0.001758   599.880169     0.000000 
  44.860000   571.400000     0.001750   601.491557     0.000000 
  44.880000   571.400000     0.001750   603.184592     0.000000 
  44.900000   579.000000     0.001727   604.964856     0.000000 
  44.920000   581.500000     0.001720   606.838422     0.000000 
  44.940000   576.400000     0.001735   608.811906     0.000000 
  44.960000   563.900000     0.001773   610.892522     0.000000 
  44.980000   566.400000     0.001766   613.088153     0.000000 
  45.000000   566.400000     0.001766   615.407425     0.000000 
  45.020000   579.000000     0.001727   617.859794     0.000000 
  45.040000   579.000000     0.001727   620.455641     0.000000 
  45.060000   579.000000     0.001727   623.206386     0.000000 
  45.080000   586.500000     0.001705   626.124614     0.000000 
  45.100000   584.000000     0.001712   629.224219     0.000000 
  45.120000   579.000000     0.001727   632.520577     0.000000 
  45.140000   586.500000     0.001705   636.030730     0.000000 
  45.160000   586.500000     0.001705   639.773617     0.000000 
  45.180000   584.000000     0.001712   643.770330     0.000000 
  45.200000   594.100000     0.001683   648.044411     0.000000 
  45.220000   591.600000     0.001690   652.622204     0.000000 
  45.240000   591.600000     0.001690   657.533269     0.000000 
  45.260000   594.100000     0.001683   662.810855     0.000000 
  45.280000   594.100000     0.001683   668.492475     0.000000 
  45.300000   596.600000     0.001676   674.620571     0.000000 
  45.320000   609.200000     0.001641   681.243313     0.000000 
  45.340000   609.200000     0.001641   688.415553     0.000000 
  45.360000   614.200000     0.001628   696.199957     0.000000 
  45.380000   616.700000     0.001622   704.668381     0.000000 
  45.400000   626.800000     0.001595   713.903522     0.000000 
  45.420000   631.800000     0.001583   724.000935     0.000000 
  45.440000   646.900000     0.001546   735.071489     0.000000 
  45.460000   664.600000     0.001505   747.244701     0.000000 
  45.480000   672.100000     0.001488   760.671965     0.000000 
  45.500000   692.200000     0.001445   775.532488     0.000000 
  45.520000   707.300000     0.001414   792.040163     0.000000 
  45.540000   732.000000     0.001366   810.454922     0.000000 
  45.560000   733.800000     0.001363   831.101998     0.000000 
  45.580000   748.300000     0.001336   854.407478     0.000000 
  45.600000   759.000000     0.001318   880.954459     0.000000 
  45.620000   796.600000     0.001255   911.663095     0.000000 
  45.640000   806.200000     0.001240   947.962568     0.000000 
  45.660000   830.300000     0.001204   992.275575     0.000000 
  45.680000   841.000000     0.001189  1048.744388     0.000000 
  45.700000   877.000000     0.001140  1124.352947     0.000000 
  45.720000   922.100000     0.001084  1230.530751     0.000000 
  45.740000   965.500000     0.001036  1385.142625     0.000000 
  45.760000  1241.400000     0.000806  1614.559844     0.000000 
  45.780000  1379.300000     0.000725  1955.149857     0.000000 
  45.800000  1862.100000     0.000537  2453.162513     0.000000 
  45.820000  2413.800000     0.000414  3161.795077     0.000000 
  45.840000  3310.300000     0.000302  4134.411992     0.000000 
  45.860000  5034.500000     0.000199  5413.656391     0.000000 
  45.880000  7172.400000     0.000139  7017.466973     0.000000 
  45.900000  10620.700000     0.000094  8924.404760     0.000000 
  45.920000  14551.700000     0.000069  11061.458983     0.000000 
  45.940000  17172.400000     0.000058  13297.021412     0.000000 
  45.960000  19448.300000     0.000051  15440.674299     0.000000 
  45.980000  19379.300000     0.000052  17253.223837     0.000000 
  46.000000  17724.100000     0.000056  18478.570086     0.000000 
  46.020000  16000.000000     0.000062  18912.228005     0.000000 
  46.040000  14827.600000     0.000067  18488.916561     0.000000 
  46.060000  13655.200000     0.000073  17321.534309     0.000000 
  46.080000  12620.700000     0.000079  15651.943022     0.000000 
  46.100000  11379.300000     0.000088  13763.100702     0.000000 
  46.120000  9655.200000     0.000104  11914.772688     0.000000 
  46.140000  8344.800000     0.000120  10312.614416     0.000000 
  46.160000  6965.500000     0.000144  9094.898480     0.000000 
  46.180000  6620.700000     0.000151  8327.531643     0.000000 
  46.200000  7446.000000     0.000134  8005.905409     0.000000 
  46.220000  8275.900000     0.000121  8063.160564     0.000000 
  46.240000  10069.000000     0.000099  8383.094388     0.000000 
  46.260000  11448.300000     0.000087  8815.286810     0.000000 
  46.280000  12137.900000     0.000082  9193.117997     0.000000 
  46.300000  11931.000000     0.000084  9360.712555     0.000000 
  46.320000  10620.700000     0.000094  9211.903816     0.000000 
  46.340000  9587.000000     0.000104  8723.194106     0.000000 
  46.360000  8482.800000     0.000118  7951.369288     0.000000 
  46.380000  8206.900000     0.000122  6997.537218     0.000000 
  46.400000  7241.400000     0.000138  5969.078014     0.000000 
  46.420000  6689.700000     0.000149  4957.964493     0.000000 
  46.440000  5379.300000     0.000186  4032.336236     0.000000 
  46.460000  4275.900000     0.000234  3234.510954     0.000000 
  46.480000  3034.500000     0.000330  2582.604862     0.000000 
  46.500000  2620.700000     0.000382  2074.913264     0.000000 
  46.520000  1793.100000     0.000558  1696.029848     0.000000 
  46.540000  1271.000000     0.000787  1423.642943     0.000000 
  46.560000  1146.000000     0.000873  1232.631645     0.000000 
  46.580000   991.000000     0.001009  1100.952514     0.000000 
  46.600000   962.000000     0.001040  1010.251007     0.000000 
  46.620000   879.300000     0.001137   946.736308     0.000000 
  46.640000   817.200000     0.001224   900.766904     0.000000 
  46.660000   804.000000     0.001244   865.997912     0.000000 
  46.680000   775.900000     0.001289   838.453628     0.000000 
  46.700000   733.000000     0.001364   815.729467     0.000000 
  46.720000   734.000000     0.001362   796.395853     0.000000 
  46.740000   720.700000     0.001388   779.596974     0.000000 
  46.760000   716.000000     0.001397   764.802297     0.000000 
  46.780000   703.400000     0.001422   751.662816     0.000000 
  46.800000   703.400000     0.001422   739.932300     0.000000 
  46.820000   685.000000     0.001460   729.425700     0.000000 
  46.840000   675.900000     0.001480   719.997515     0.000000 
  46.860000   679.300000     0.001472   711.530426     0.000000 
  46.880000   663.000000     0.001508   703.929223     0.000000 
  46.900000   671.000000     0.001490   697.117774     0.000000 
  46.920000   669.000000     0.001495   691.038490     0.000000 
  46.940000   658.600000     0.001518   685.654239     0.000000 
  46.960000   662.100000     0.001510   680.954413     0.000000 
  46.980000   658.600000     0.001518   676.966392     0.000000 
  47.000000   654.000000     0.001529   673.774721     0.000000 
  47.020000   655.200000     0.001526   671.549558     0.000000 
  47.040000   658.600000     0.001518   670.584028     0.000000 
  47.060000   655.200000     0.001526   671.336157     0.000000 
  47.080000   655.200000     0.001526   674.465009     0.000000 
  47.100000   648.300000     0.001542   680.843681     0.000000 
  47.120000   664.100000     0.001506   691.526917     0.000000 
  47.140000   676.600000     0.001478   707.652341     0.000000 
  47.160000   720.000000     0.001389   731.083039     0.000000 
  47.180000   794.500000     0.001259   760.910946     0.000000 
  47.200000   887.600000     0.001127   798.235730     0.000000 
  47.220000  1036.600000     0.000965   842.037630     0.000000 
  47.240000  1160.700000     0.000862   890.853811     0.000000 
  47.260000  1322.100000     0.000756   942.115315     0.000000 
  47.280000  1446.200000     0.000691   992.458468     0.000000 
  47.300000  1483.400000     0.000674  1038.138374     0.000000 
  47.320000  1483.400000     0.000674  1075.995152     0.000000 
  47.340000  1458.600000     0.000686  1105.002780     0.000000 
  47.360000  1450.000000     0.000690  1127.417176     0.000000 
  47.380000  1427.600000     0.000700  1148.178550     0.000000 
  47.400000  1477.200000     0.000677  1172.785651     0.000000 
  47.420000  1520.700000     0.000658  1205.148201     0.000000 
  47.440000  1597.000000     0.000626  1246.273925     0.000000 
  47.460000  1663.400000     0.000601  1293.707117     0.000000 
  47.480000  1750.300000     0.000571  1341.545707     0.000000 
  47.500000  1750.300000     0.000571  1381.202608     0.000000 
  47.520000  1719.300000     0.000582  1403.234977     0.000000 
  47.540000  1663.400000     0.000601  1400.019406     0.000000 
  47.560000  1555.000000     0.000643  1368.149417     0.000000 
  47.580000  1446.000000     0.000692  1309.454832     0.000000 
  47.600000  1346.900000     0.000742  1230.264863     0.000000 
  47.620000  1278.600000     0.000782  1139.282491     0.000000 
  47.640000  1160.700000     0.000862  1045.173236     0.000000 
  47.660000  1060.000000     0.000943   955.131492     0.000000 
  47.680000   974.500000     0.001026   874.224390     0.000000 
  47.700000   857.000000     0.001167   805.352481     0.000000 
  47.720000   787.000000     0.001271   749.491164     0.000000 
  47.740000   732.400000     0.001365   706.506573     0.000000 
  47.760000   664.100000     0.001506   674.099536     0.000000 
  47.780000   639.300000     0.001564   650.654530     0.000000 
  47.800000   609.000000     0.001642   634.093551     0.000000 
  47.820000   602.100000     0.001661   622.542323     0.000000 
  47.840000   602.000000     0.001661   614.471657     0.000000 
  47.860000   595.000000     0.001681   608.729951     0.000000 
  47.880000   589.700000     0.001696   604.506294     0.000000 
  47.900000   580.000000     0.001724   601.261269     0.000000 
  47.920000   586.000000     0.001706   598.652452     0.000000 
  47.940000   567.000000     0.001764   596.469873     0.000000 
  47.960000   579.000000     0.001727   594.587124     0.000000 
  47.980000   583.400000     0.001714   592.927864     0.000000 
  48.000000   565.000000     0.001770   592.675183     0.000000 
  48.020000   577.200000     0.001733   591.352505     0.000000 
  48.040000   579.400000     0.001726   590.153138     0.000000 
  48.060000   575.100000     0.001739   589.119354     0.000000 
  48.080000   568.700000     0.001758   588.121647     0.000000 
  48.100000   577.200000     0.001733   587.207351     0.000000 
  48.120000   577.000000     0.001733   586.367609     0.000000 
  48.140000   573.000000     0.001745   585.594909     0.000000 
  48.160000   562.300000     0.001778   584.882822     0.000000 
  48.180000   566.600000     0.001765   584.225824     0.000000 
  48.200000   575.100000     0.001739   583.619133     0.000000 
  48.220000   567.000000     0.001764   583.058604     0.000000 
  48.240000   568.700000     0.001758   582.540629     0.000000 
  48.260000   577.200000     0.001733   582.062060     0.000000 
  48.280000   573.000000     0.001745   581.620146     0.000000 
  48.300000   575.000000     0.001739   581.212476     0.000000 
  48.320000   573.000000     0.001745   580.836940     0.000000 
  48.340000   587.900000     0.001701   580.491687     0.000000 
  48.360000   582.000000     0.001718   580.175096     0.000000 
  48.380000   583.700000     0.001713   579.885751     0.000000 
  48.400000   575.100000     0.001739   579.622419     0.000000 
  48.420000   577.200000     0.001733   579.384028     0.000000 
  48.440000   587.900000     0.001701   579.169659     0.000000 
  48.460000   579.400000     0.001726   578.978527     0.000000 
  48.480000   581.500000     0.001720   578.809973     0.000000 
  48.500000   591.000000     0.001692   578.663458     0.000000 
  48.520000   582.200000     0.001718   578.538552     0.000000 
  48.540000   580.000000     0.001724   578.434933     0.000000 
  48.560000   582.200000     0.001718   578.352384     0.000000 
  48.580000   590.900000     0.001692   578.290786     0.000000 
  48.600000   590.900000     0.001692   578.250126     0.000000 
  48.620000   586.600000     0.001705   578.230491     0.000000 
  48.640000   577.900000     0.001730   578.232075     0.000000 
  48.660000   577.900000     0.001730   578.255183     0.000000 
  48.680000   577.900000     0.001730   579.099719     0.000000 
  48.700000   584.400000     0.001711   579.177435     0.000000 
  48.720000   586.600000     0.001705   579.278562     0.000000 
  48.740000   577.900000     0.001730   579.404006     0.000000 
  48.760000   577.900000     0.001730   580.543317     0.000000 
  48.780000   586.000000     0.001706   580.733816     0.000000 
  48.800000   580.000000     0.001724   580.953689     0.000000 
  48.820000   584.400000     0.001711   581.205989     0.000000 
  48.840000   588.700000     0.001699   581.495249     0.000000 
  48.860000   576.000000     0.001736   581.828292     0.000000 
  48.880000   577.900000     0.001730   583.008782     0.000000 
  48.900000   575.700000     0.001737   583.474717     0.000000 
  48.920000   582.200000     0.001718   584.030387     0.000000 
  48.940000   586.600000     0.001705   584.703090     0.000000 
  48.960000   582.200000     0.001718   586.069692     0.000000 
  48.980000   580.000000     0.001724   587.087594     0.000000 
  49.000000   571.300000     0.001750   588.330070     0.000000 
  49.020000   577.900000     0.001730   589.826093     0.000000 
  49.040000   586.600000     0.001705   591.588445     0.000000 
  49.060000   586.000000     0.001706   593.605049     0.000000 
  49.080000   580.000000     0.001724   590.196340     0.000000 
  49.100000   575.700000     0.001737   592.626548     0.000000 
  49.120000   583.000000     0.001715   595.069920     0.000000 
  49.140000   582.000000     0.001718   597.380567     0.000000 
  49.160000   577.900000     0.001730   599.402588     0.000000 
  49.180000   588.700000     0.001699   601.013514     0.000000 
  49.200000   586.600000     0.001705   602.180173     0.000000 
  49.220000   586.600000     0.001705   602.985513     0.000000 
  49.240000   578.200000     0.001730   603.601696     0.000000 
  49.260000   578.200000     0.001730   604.240215     0.000000 
  49.280000   580.000000     0.001724   605.121275     0.000000 
  49.300000   600.300000     0.001666   606.835420     0.000000 
  49.320000   589.200000     0.001697   608.927256     0.000000 
  49.340000   584.800000     0.001710   612.099875     0.000000 
  49.360000   595.900000     0.001678   616.856440     0.000000 
  49.380000   595.900000     0.001678   621.593443     0.000000 
  49.400000   589.200000     0.001697   632.386353     0.000000 
  49.420000   589.200000     0.001697   648.070561     0.000000 
  49.440000   595.900000     0.001678   670.957716     0.000000 
  49.460000   591.400000     0.001691   703.648089     0.000000 
  49.480000   622.800000     0.001606   748.997004     0.000000 
  49.500000   642.100000     0.001557   809.698086     0.000000 
  49.520000   671.000000     0.001490   887.674712     0.000000 
  49.540000   748.300000     0.001336   983.350925     0.000000 
  49.560000   854.500000     0.001170  1094.929768     0.000000 
  49.580000  1009.000000     0.000991  1217.822851     0.000000 
  49.600000  1192.400000     0.000839  1344.334011     0.000000 
  49.620000  1332.400000     0.000751  1463.665837     0.000000 
  49.640000  1356.600000     0.000737  1562.486447     0.000000 
  49.660000  1293.800000     0.000773  1626.766450     0.000000 
  49.680000  1192.400000     0.000839  1645.593238     0.000000 
  49.700000  1100.700000     0.000909  1615.710045     0.000000 
  49.720000  1052.400000     0.000950  1543.156489     0.000000 
  49.740000  1037.900000     0.000963  1440.352588     0.000000 
  49.760000  1047.600000     0.000955  1321.462117     0.000000 
  49.780000   989.700000     0.001010  1199.192832     0.000000 
  49.800000   917.200000     0.001090  1083.455830     0.000000 
  49.820000   820.700000     0.001218   981.024211     0.000000 
  49.840000   753.100000     0.001328   895.641041     0.000000 
  49.860000   709.700000     0.001409   828.428828     0.000000 
  49.880000   675.900000     0.001480   778.534766     0.000000 
  49.900000   656.600000     0.001523   743.897290     0.000000 
  49.920000   646.900000     0.001546   721.997548     0.000000 
  49.940000   637.200000     0.001569   710.494484     0.000000 
  49.960000   627.600000     0.001593   707.705757     0.000000 
  49.980000   627.600000     0.001593   712.952825     0.000000 
  50.000000   622.800000     0.001606   726.814416     0.000000 
  50.020000   599.300000     0.001669   751.321084     0.000000 
  50.040000   606.900000     0.001648   790.081882     0.000000 
  50.060000   606.900000     0.001648   848.277707     0.000000 
  50.080000   652.400000     0.001533   932.407880     0.000000 
  50.100000   644.800000     0.001551  1049.662597     0.000000 
  50.120000   682.800000     0.001465  1206.836734     0.000000 
  50.140000   751.000000     0.001332  1408.805366     0.000000 
  50.160000   917.900000     0.001089  1656.725395     0.000000 
  50.180000  1122.800000     0.000891  1946.249219     0.000000 
  50.200000  1357.900000     0.000736  2266.063487     0.000000 
  50.220000  1653.800000     0.000605  2596.983337     0.000000 
  50.240000  1896.600000     0.000527  2911.845176     0.000000 
  50.260000  2063.400000     0.000485  3177.010219     0.000000 
  50.280000  2101.400000     0.000476  3357.360174     0.000000 
  50.300000  2002.800000     0.000499  3425.862639     0.000000 
  50.320000  1873.800000     0.000534  3373.495181     0.000000 
  50.340000  1714.500000     0.000583  3211.620153     0.000000 
  50.360000  1646.200000     0.000607  2965.676704     0.000000 
  50.380000  1524.800000     0.000656  2666.952077     0.000000 
  50.400000  1479.300000     0.000676  2346.642707     0.000000 
  50.420000  1373.100000     0.000728  2031.673452     0.000000 
  50.440000  1221.400000     0.000819  1742.619892     0.000000 
  50.460000  1062.100000     0.000942  1492.103884     0.000000 
  50.480000   917.900000     0.001089  1285.843044     0.000000 
  50.500000   819.300000     0.001221  1123.937843     0.000000 
  50.520000   743.400000     0.001345  1002.648362     0.000000 
  50.540000   697.900000     0.001433   916.174597     0.000000 
  50.560000   682.800000     0.001465   858.183145     0.000000 
  50.580000   660.000000     0.001515   822.937183     0.000000 
  50.600000   660.000000     0.001515   805.998452     0.000000 
  50.620000   652.400000     0.001533   804.428628     0.000000 
  50.640000   652.400000     0.001533   817.322005     0.000000 
  50.660000   675.900000     0.001480   844.645072     0.000000 
  50.680000   695.200000     0.001438   888.003560     0.000000 
  50.700000   733.800000     0.001363   948.982965     0.000000 
  50.720000   733.800000     0.001363  1029.086130     0.000000 
  50.740000   753.100000     0.001328  1128.734698     0.000000 
  50.760000   753.100000     0.001328  1246.539774     0.000000 
  50.780000   830.300000     0.001204  1378.796479     0.000000 
  50.800000   926.900000     0.001079  1519.220099     0.000000 
  50.820000  1100.700000     0.000909  1658.881097     0.000000 
  50.840000  1409.700000     0.000709  1786.509491     0.000000 
  50.860000  1737.900000     0.000575  1889.837938     0.000000 
  50.880000  1989.000000     0.000503  1958.975840     0.000000 
  50.900000  2278.600000     0.000439  1991.616265     0.000000 
  50.920000  2355.900000     0.000424  1996.898118     0.000000 
  50.940000  2278.600000     0.000439  1994.300899     0.000000 
  50.960000  2143.400000     0.000467  2008.432315     0.000000 
  50.980000  2104.800000     0.000475  2063.492973     0.000000 
  51.000000  2124.100000     0.000471  2179.205971     0.000000 
  51.020000  2336.600000     0.000428  2367.771295     0.000000 
  51.040000  2703.400000     0.000370  2631.355242     0.000000 
  51.060000  3244.100000     0.000308  2960.245808     0.000000 
  51.080000  3920.000000     0.000255  3331.975504     0.000000 
  51.100000  4750.300000     0.000211  3711.547365     0.000000 
  51.120000  5271.700000     0.000190  4053.149406     0.000000 
  51.140000  5542.100000     0.000180  4305.097043     0.000000 
  51.160000  5445.500000     0.000184  4420.846956     0.000000 
  51.180000  5097.900000     0.000196  4374.846187     0.000000 
  51.200000  4634.500000     0.000216  4172.978895     0.000000 
  51.220000  4158.000000     0.000241  3848.062971     0.000000 
  51.240000  3792.000000     0.000264  3445.401084     0.000000 
  51.260000  3630.300000     0.000275  3010.087749     0.000000 
  51.280000  3282.800000     0.000305  2580.262402     0.000000 
  51.300000  3012.400000     0.000332  2184.359844     0.000000 
  51.320000  2568.300000     0.000389  1840.431114     0.000000 
  51.340000  2085.500000     0.000480  1556.834640     0.000000 
  51.360000  1641.400000     0.000609  1333.951796     0.000000 
  51.380000  1332.400000     0.000751  1166.510683     0.000000 
  51.400000  1042.800000     0.000959  1046.030851     0.000000 
  51.420000   907.600000     0.001102   962.960057     0.000000 
  51.440000   844.000000     0.001185   908.241355     0.000000 
  51.460000   759.000000     0.001318   874.247558     0.000000 
  51.480000   759.000000     0.001318   855.178319     0.000000 
  51.500000   780.000000     0.001282   847.098759     0.000000 
  51.520000   786.200000     0.001272   847.810542     0.000000 
  51.540000   781.000000     0.001280   856.710542     0.000000 
  51.560000   830.000000     0.001205   874.733075     0.000000 
  51.580000   889.700000     0.001124   904.406801     0.000000 
  51.600000   951.700000     0.001051   949.994585     0.000000 
  51.620000  1013.800000     0.000986  1017.628385     0.000000 
  51.640000  1159.700000     0.000862  1115.307100     0.000000 
  51.660000  1424.100000     0.000702  1252.604824     0.000000 
  51.680000  1613.800000     0.000620  1439.954683     0.000000 
  51.700000  2048.300000     0.000488  1687.437852     0.000000 
  51.720000  2565.500000     0.000390  2003.111309     0.000000 
  51.740000  3206.900000     0.000312  2391.017220     0.000000 
  51.760000  3621.400000     0.000276  2849.082633     0.000000 
  51.780000  4150.300000     0.000241  3367.129239     0.000000 
  51.800000  4469.000000     0.000224  3925.311208     0.000000 
  51.820000  4634.500000     0.000216  4493.852038     0.000000 
  51.840000  4779.300000     0.000209  5035.952718     0.000000 
  51.860000  4944.800000     0.000202  5515.248034     0.000000 
  51.880000  5101.000000     0.000196  5904.608357     0.000000 
  51.900000  5330.300000     0.000188  6189.344831     0.000000 
  51.920000  5594.800000     0.000179  6364.417843     0.000000 
  51.940000  5869.000000     0.000170  6433.661239     0.000000 
  51.960000  5878.000000     0.000170  6412.792113     0.000000 
  51.980000  5834.500000     0.000171  6327.381744     0.000000 
  52.000000  5696.600000     0.000176  6202.108082     0.000000 
  52.020000  5513.400000     0.000181  6049.514807     0.000000 
  52.040000  5411.700000     0.000185  5866.955006     0.000000 
  52.060000  5255.200000     0.000190  5643.098729     0.000000 
  52.080000  5275.900000     0.000190  5368.296775     0.000000 
  52.100000  5193.100000     0.000193  5040.060812     0.000000 
  52.120000  5027.600000     0.000199  4661.732484     0.000000 
  52.140000  4737.900000     0.000211  4241.191821     0.000000 
  52.160000  4299.000000     0.000233  3792.883993     0.000000 
  52.180000  3867.000000     0.000259  3338.219043     0.000000 
  52.200000  3435.000000     0.000291  2901.297411     0.000000 
  52.220000  3046.000000     0.000328  2503.518141     0.000000 
  52.240000  2740.000000     0.000365  2160.708343     0.000000 
  52.260000  2450.000000     0.000408  1882.792119     0.000000 
  52.280000  2208.000000     0.000453  1674.611587     0.000000 
  52.300000  2050.000000     0.000488  1537.002060     0.000000 
  52.320000  1914.000000     0.000522  1467.769699     0.000000 
  52.340000  1886.000000     0.000530  1462.445455     0.000000 
  52.360000  1932.800000     0.000517  1514.663969     0.000000 
  52.380000  2158.000000     0.000463  1616.220019     0.000000 
  52.400000  2400.700000     0.000417  1756.777951     0.000000 
  52.420000  2766.900000     0.000361  1923.367702     0.000000 
  52.440000  3228.000000     0.000310  2099.952717     0.000000 
  52.460000  3601.000000     0.000278  2267.788513     0.000000 
  52.480000  3889.700000     0.000257  2407.605388     0.000000 
  52.500000  4048.600000     0.000247  2503.522032     0.000000 
  52.520000  4028.300000     0.000248  2546.039716     0.000000 
  52.540000  3880.000000     0.000258  2531.600321     0.000000 
  52.560000  3685.000000     0.000271  2460.551054     0.000000 
  52.580000  3397.600000     0.000294  2337.094183     0.000000 
  52.600000  3214.000000     0.000311  2170.848801     0.000000 
  52.620000  2929.700000     0.000341  1976.610290     0.000000 
  52.640000  2665.200000     0.000375  1771.205195     0.000000 
  52.660000  2337.000000     0.000428  1569.775496     0.000000 
  52.680000  2125.000000     0.000471  1383.664342     0.000000 
  52.700000  1770.000000     0.000565  1219.996281     0.000000 
  52.720000  1554.000000     0.000644  1082.128595     0.000000 
  52.740000  1367.000000     0.000732   970.400742     0.000000 
  52.760000  1110.000000     0.000901   882.966583     0.000000 
  52.780000   936.000000     0.001068   816.621408     0.000000 
  52.800000   846.000000     0.001182   767.547629     0.000000 
  52.820000   780.000000     0.001282   731.560785     0.000000 
  52.840000   736.700000     0.001357   705.911337     0.000000 
  52.860000   692.800000     0.001443   687.393223     0.000000 
  52.880000   680.000000     0.001471   673.806718     0.000000 
  52.900000   660.000000     0.001515   663.554434     0.000000 
  52.920000   648.800000     0.001541   655.534657     0.000000 
  52.940000   638.700000     0.001566   649.019485     0.000000 
  52.960000   621.800000     0.001608   643.543380     0.000000 
  52.980000   615.000000     0.001626   638.814140     0.000000 
  53.000000   604.900000     0.001653   634.648475     0.000000 
  53.020000   589.000000     0.001698   630.928953     0.000000 
  53.040000   594.800000     0.001681   627.577055     0.000000 
  53.060000   581.200000     0.001721   624.537207     0.000000 
  53.080000   574.500000     0.001741   621.767688     0.000000 
  53.100000   571.100000     0.001751   619.235579     0.000000 
  53.120000   566.000000     0.001767   616.913962     0.000000 
  53.140000   574.500000     0.001741   614.780292     0.000000 
  53.160000   577.900000     0.001730   612.815421     0.000000 
  53.180000   571.100000     0.001751   611.002953     0.000000 
  53.200000   572.000000     0.001748   609.328782     0.000000 
  53.220000   567.700000     0.001761   607.780740     0.000000 
  53.240000   557.600000     0.001793   606.348325     0.000000 
  53.260000   554.200000     0.001804   605.022485     0.000000 
  53.280000   557.600000     0.001793   603.795452     0.000000 
  53.300000   564.300000     0.001772   602.660609     0.000000 
  53.320000   559.000000     0.001789   601.612388     0.000000 
  53.340000   571.100000     0.001751   600.646217     0.000000 
  53.360000   564.300000     0.001772   599.758508     0.000000 
  53.380000   561.000000     0.001783   598.946708     0.000000 
  53.400000   570.000000     0.001754   599.422668     0.000000 
  53.420000   571.100000     0.001751   600.278051     0.000000 
  53.440000   563.000000     0.001776   599.727190     0.000000 
  53.460000   557.600000     0.001793   598.461444     0.000000 
  53.480000   557.000000     0.001795   598.101629     0.000000 
  53.500000   567.700000     0.001761   597.860335     0.000000 
  53.520000   568.000000     0.001761   597.609314     0.000000 
  53.540000   571.100000     0.001751   597.741801     0.000000 
  53.560000   564.300000     0.001772   598.182710     0.000000 
  53.580000   571.100000     0.001751   599.067270     0.000000 
  53.600000   574.500000     0.001741   600.582190     0.000000 
  53.620000   576.600000     0.001734   602.969249     0.000000 
  53.640000   579.800000     0.001725   606.518984     0.000000 
  53.660000   592.900000     0.001687   611.549715     0.000000 
  53.680000   602.800000     0.001659   618.368660     0.000000 
  53.700000   615.900000     0.001624   627.215113     0.000000 
  53.720000   629.000000     0.001590   638.189921     0.000000 
  53.740000   661.700000     0.001511   651.179291     0.000000 
  53.760000   697.800000     0.001433   665.782875     0.000000 
  53.780000   730.500000     0.001369   681.257932     0.000000 
  53.800000   787.700000     0.001270   696.501330     0.000000 
  53.820000   835.300000     0.001197   710.115323     0.000000 
  53.840000   897.600000     0.001114   720.608348     0.000000 
  53.860000   914.000000     0.001094   726.698230     0.000000 
  53.880000   923.800000     0.001082   727.574095     0.000000 
  53.900000   914.100000     0.001094   725.098403     0.000000 
  53.920000   894.600000     0.001118   715.698308     0.000000 
  53.940000   871.900000     0.001147   702.546090     0.000000 
  53.960000   846.000000     0.001182   687.189514     0.000000 
  53.980000   827.600000     0.001208   671.121237     0.000000 
  54.000000   801.100000     0.001248   655.579171     0.000000 
  54.020000   784.400000     0.001275   641.439708     0.000000 
  54.040000   755.200000     0.001324   629.221918     0.000000 
  54.060000   713.100000     0.001402   618.747652     0.000000 
  54.080000   693.700000     0.001442   610.758811     0.000000 
  54.100000   658.000000     0.001520   604.659705     0.000000 
  54.120000   638.600000     0.001566   600.152437     0.000000 
  54.140000   615.000000     0.001626   596.909543     0.000000 
  54.160000   604.900000     0.001653   594.620724     0.000000 
  54.180000   589.200000     0.001697   593.020530     0.000000 
  54.200000   591.400000     0.001691   591.899325     0.000000 
  54.220000   592.000000     0.001689   591.102225     0.000000 
  54.240000   577.900000     0.001730   590.521116     0.000000 
  54.260000   571.100000     0.001751   590.084077     0.000000 
  54.280000   577.900000     0.001730   589.745072     0.000000 
  54.300000   581.200000     0.001721   589.475405     0.000000 
  54.320000   574.500000     0.001741   589.257378     0.000000 
  54.340000   567.000000     0.001764   587.859122     0.000000 
  54.360000   567.700000     0.001761   587.730461     0.000000 
  54.380000   561.000000     0.001783   587.630256     0.000000 
  54.400000   561.000000     0.001783   587.496997     0.000000 
  54.420000   567.700000     0.001761   587.444949     0.000000 
  54.440000   580.000000     0.001724   588.498050     0.000000 
  54.460000   574.500000     0.001741   588.498448     0.000000 
  54.480000   571.100000     0.001751   588.516350     0.000000 
  54.500000   559.000000     0.001789   588.550594     0.000000 
  54.520000   561.000000     0.001783   588.600203     0.000000 
  54.540000   574.500000     0.001741   588.664353     0.000000 
  54.560000   574.000000     0.001742   588.742354     0.000000 
  54.580000   580.000000     0.001724   591.656414     0.000000 
  54.600000   570.000000     0.001754   591.795499     0.000000 
  54.620000   571.100000     0.001751   591.947634     0.000000 
  54.640000   567.700000     0.001761   592.112514     0.000000 
  54.660000   558.000000     0.001792   592.289899     0.000000 
  54.680000   561.000000     0.001783   594.731778     0.000000 
  54.700000   561.000000     0.001783   594.961567     0.000000 
  54.720000   566.600000     0.001765   595.203997     0.000000 
  54.740000   569.000000     0.001757   595.459047     0.000000 
  54.760000   562.300000     0.001778   595.726740     0.000000 
  54.780000   558.000000     0.001792   596.007137     0.000000 
  54.800000   564.400000     0.001772   596.300337     0.000000 
  54.820000   568.700000     0.001758   596.606475     0.000000 
  54.840000   568.700000     0.001758   596.925721     0.000000 
  54.860000   557.000000     0.001795   597.258277     0.000000 
  54.880000   555.900000     0.001799   597.604383     0.000000 
  54.900000   564.000000     0.001773   597.964307     0.000000 
  54.920000   568.700000     0.001758   598.338353     0.000000 
  54.940000   570.800000     0.001752   598.726861     0.000000 
  54.960000   563.000000     0.001776   599.130201     0.000000 
  54.980000   565.000000     0.001770   599.548781     0.000000 
  55.000000   575.000000     0.001739   599.983045     0.000000 
  55.020000   573.000000     0.001745   600.433473     0.000000 
  55.040000   566.600000     0.001765   600.106001     0.000000 
  55.060000   575.100000     0.001739   600.600235     0.000000 
  55.080000   579.400000     0.001726   601.112137     0.000000 
  55.100000   575.100000     0.001739   601.642360     0.000000 
  55.120000   566.600000     0.001765   601.211577     0.000000 
  55.140000   573.000000     0.001745   601.792771     0.000000 
  55.160000   575.000000     0.001739   602.394322     0.000000 
  55.180000   576.000000     0.001736   603.017098     0.000000 
  55.200000   581.500000     0.001720   603.662030     0.000000 
  55.220000   577.200000     0.001733   604.330113     0.000000 
  55.240000   581.800000     0.001719   605.022413     0.000000 
  55.260000   568.700000     0.001758   604.961298     0.000000 
  55.280000   571.000000     0.001751   605.715155     0.000000 
  55.300000   584.400000     0.001711   606.496727     0.000000 
  55.320000   576.600000     0.001734   607.367684     0.000000 
  55.340000   586.000000     0.001706   607.677797     0.000000 
  55.360000   587.000000     0.001704   608.558721     0.000000 
  55.380000   579.000000     0.001727   609.473548     0.000000 
  55.400000   568.700000     0.001758   610.424159     0.000000 
  55.420000   566.000000     0.001767   611.412580     0.000000 
  55.440000   568.700000     0.001758   612.513524     0.000000 
  55.460000   576.000000     0.001736   613.585185     0.000000 
  55.480000   589.000000     0.001698   614.701754     0.000000 
  55.500000   573.900000     0.001742   615.865981     0.000000 
  55.520000   571.300000     0.001750   617.080844     0.000000 
  55.540000   571.300000     0.001750   618.349572     0.000000 
  55.560000   584.400000     0.001711   619.675670     0.000000 
  55.580000   592.000000     0.001689   621.062950     0.000000 
  55.600000   581.800000     0.001719   622.515561     0.000000 
  55.620000   592.300000     0.001688   624.038029     0.000000 
  55.640000   597.500000     0.001674   625.635300     0.000000 
  55.660000   600.100000     0.001666   627.312781     0.000000 
  55.680000   597.500000     0.001674   628.717098     0.000000 
  55.700000   587.000000     0.001704   630.577827     0.000000 
  55.720000   597.500000     0.001674   632.538293     0.000000 
  55.740000   602.800000     0.001659   634.606401     0.000000 
  55.760000   592.300000     0.001688   636.612398     0.000000 
  55.780000   592.300000     0.001688   638.741563     0.000000 
  55.800000   605.400000     0.001652   641.193289     0.000000 
  55.820000   611.000000     0.001637   643.793634     0.000000 
  55.840000   605.400000     0.001652   646.555908     0.000000 
  55.860000   610.600000     0.001638   649.494989     0.000000 
  55.880000   618.500000     0.001617   652.627557     0.000000 
  55.900000   613.200000     0.001631   655.972363     0.000000 
  55.920000   613.200000     0.001631   659.550547     0.000000 
  55.940000   599.000000     0.001669   663.386021     0.000000 
  55.960000   605.400000     0.001652   667.505911     0.000000 
  55.980000   608.000000     0.001645   671.941102     0.000000 
  56.000000   611.000000     0.001637   676.726882     0.000000 
  56.020000   608.000000     0.001645   681.903713     0.000000 
  56.040000   606.000000     0.001650   687.518236     0.000000 
  56.060000   613.200000     0.001631   693.624335     0.000000 
  56.080000   618.500000     0.001617   700.284714     0.000000 
  56.100000   621.000000     0.001610   707.572826     0.000000 
  56.120000   621.100000     0.001610   715.575564     0.000000 
  56.140000   618.500000     0.001617   724.400833     0.000000 
  56.160000   626.300000     0.001597   734.170162     0.000000 
  56.180000   629.000000     0.001590   745.051073     0.000000 
  56.200000   629.000000     0.001590   757.263745     0.000000 
  56.220000   649.900000     0.001539   771.121619     0.000000 
  56.240000   670.900000     0.001491   787.097151     0.000000 
  56.260000   697.100000     0.001435   805.933915     0.000000 
  56.280000   728.600000     0.001372   828.828190     0.000000 
  56.300000   774.000000     0.001292   857.705086     0.000000 
  56.320000   814.000000     0.001229   895.606850     0.000000 
  56.340000   796.000000     0.001256   947.189407     0.000000 
  56.360000   862.000000     0.001160  1019.277806     0.000000 
  56.380000   876.000000     0.001142  1121.365704     0.000000 
  56.400000   973.000000     0.001028  1265.865259     0.000000 
  56.420000  1147.000000     0.000872  1467.848388     0.000000 
  56.440000  1408.000000     0.000710  1744.005502     0.000000 
  56.460000  1995.000000     0.000501  2110.623508     0.000000 
  56.480000  2750.000000     0.000364  2580.568687     0.000000 
  56.500000  3849.000000     0.000260  3159.535015     0.000000 
  56.520000  5019.000000     0.000199  3841.975725     0.000000 
  56.540000  6567.000000     0.000152  4607.511047     0.000000 
  56.560000  7742.000000     0.000129  5418.098550     0.000000 
  56.580000  9227.000000     0.000108  6216.738773     0.000000 
  56.600000  10048.000000     0.000100  6929.255287     0.000000 
  56.620000  10448.300000     0.000096  7472.275160     0.000000 
  56.640000  10023.000000     0.000100  7770.074728     0.000000 
  56.660000  9630.000000     0.000104  7776.526378     0.000000 
  56.680000  8820.000000     0.000113  7491.415922     0.000000 
  56.700000  8276.000000     0.000121  6961.158665     0.000000 
  56.720000  7794.000000     0.000128  6262.684691     0.000000 
  56.740000  6998.000000     0.000143  5480.507160     0.000000 
  56.760000  6668.000000     0.000150  4689.517446     0.000000 
  56.780000  5983.000000     0.000167  3947.385269     0.000000 
  56.800000  5212.000000     0.000192  3293.320408     0.000000 
  56.820000  4391.000000     0.000228  2749.781844     0.000000 
  56.840000  3656.000000     0.000274  2325.679862     0.000000 
  56.860000  2920.000000     0.000342  2020.499127     0.000000 
  56.880000  2305.000000     0.000434  1828.733878     0.000000 
  56.900000  1928.000000     0.000519  1743.874559     0.000000 
  56.920000  1656.000000     0.000604  1761.207709     0.000000 
  56.940000  1608.000000     0.000622  1878.978788     0.000000 
  56.960000  1787.000000     0.000560  2097.759092     0.000000 
  56.980000  1986.000000     0.000504  2418.180648     0.000000 
  57.000000  2653.000000     0.000377  2837.597815     0.000000 
  57.020000  3554.000000     0.000281  3346.369779     0.000000 
  57.040000  4483.000000     0.000223  3924.499720     0.000000 
  57.060000  5727.000000     0.000175  4539.110166     0.000000 
  57.080000  6602.000000     0.000151  5143.138622     0.000000 
  57.100000  7137.900000     0.000140  5675.666677     0.000000 
  57.120000  7396.600000     0.000135  6067.129149     0.000000 
  57.140000  7293.100000     0.000137  6253.833748     0.000000 
  57.160000  6759.000000     0.000148  6200.640920     0.000000 
  57.180000  6206.900000     0.000161  5917.679922     0.000000 
  57.200000  5689.700000     0.000176  5455.163421     0.000000 
  57.220000  5379.300000     0.000186  4881.550873     0.000000 
  57.240000  4965.500000     0.000201  4263.495694     0.000000 
  57.260000  4603.400000     0.000217  3655.140069     0.000000 
  57.280000  4341.000000     0.000230  3096.294288     0.000000 
  57.300000  3824.000000     0.000262  2612.052424     0.000000 
  57.320000  3321.000000     0.000301  2214.489898     0.000000 
  57.340000  2699.000000     0.000371  1905.157320     0.000000 
  57.360000  2246.000000     0.000445  1678.284744     0.000000 
  57.380000  1703.000000     0.000587  1524.223854     0.000000 
  57.400000  1523.000000     0.000657  1432.860056     0.000000 
  57.420000  1334.000000     0.000750  1394.974267     0.000000 
  57.440000  1354.000000     0.000739  1405.434309     0.000000 
  57.460000  1360.000000     0.000735  1462.666328     0.000000 
  57.480000  1643.000000     0.000609  1568.990913     0.000000 
  57.500000  1905.000000     0.000525  1729.790861     0.000000 
  57.520000  2417.000000     0.000414  1952.415503     0.000000 
  57.540000  2965.000000     0.000337  2244.849081     0.000000 
  57.560000  3493.000000     0.000286  2614.370133     0.000000 
  57.580000  4198.000000     0.000238  3066.322542     0.000000 
  57.600000  4726.000000     0.000212  3602.947401     0.000000 
  57.620000  5324.000000     0.000188  4222.058672     0.000000 
  57.640000  5944.000000     0.000168  4915.566092     0.000000 
  57.660000  6790.000000     0.000147  5668.982033     0.000000 
  57.680000  7750.000000     0.000129  6464.459675     0.000000 
  57.700000  9176.000000     0.000109  7288.121083     0.000000 
  57.720000  10507.000000     0.000095  8135.621655     0.000000 
  57.740000  11749.000000     0.000085  9007.201535     0.000000 
  57.760000  12307.000000     0.000081  9893.053785     0.000000 
  57.780000  12672.000000     0.000079  10759.250782     0.000000 
  57.800000  12879.300000     0.000078  11543.515434     0.000000 
  57.820000  13086.200000     0.000076  12166.750349     0.000000 
  57.840000  13262.000000     0.000075  12559.972546     0.000000 
  57.860000  13758.600000     0.000073  12689.858160     0.000000 
  57.880000  14348.000000     0.000070  12559.273465     0.000000 
  57.900000  14689.700000     0.000068  12184.435407     0.000000 
  57.920000  14445.000000     0.000069  11576.653806     0.000000 
  57.940000  13896.000000     0.000072  10748.070398     0.000000 
  57.960000  12468.000000     0.000080  9732.222883     0.000000 
  57.980000  11014.000000     0.000091  8593.330981     0.000000 
  58.000000  9644.000000     0.000104  7412.463204     0.000000 
  58.020000  8535.000000     0.000117  6265.279199     0.000000 
  58.040000  7599.000000     0.000132  5208.548791     0.000000 
  58.060000  6621.000000     0.000151  4277.576906     0.000000 
  58.080000  5976.000000     0.000167  3489.173413     0.000000 
  58.100000  5293.000000     0.000189  2844.536990     0.000000 
  58.120000  4487.000000     0.000223  2334.779002     0.000000 
  58.140000  3600.000000     0.000278  1943.728589     0.000000 
  58.160000  2854.000000     0.000350  1651.412079     0.000000 
  58.180000  2359.000000     0.000424  1437.544242     0.000000 
  58.200000  1784.000000     0.000561  1282.977020     0.000000 
  58.220000  1480.000000     0.000676  1171.745719     0.000000 
  58.240000  1141.000000     0.000876  1091.131775     0.000000 
  58.260000   950.000000     0.001053  1031.763054     0.000000 
  58.280000   964.000000     0.001037   986.861045     0.000000 
  58.300000   877.000000     0.001140   952.111694     0.000000 
  58.320000   857.000000     0.001167   924.779238     0.000000 
  58.340000   803.000000     0.001245   903.290181     0.000000 
  58.360000   782.000000     0.001279   886.853571     0.000000 
  58.380000   757.000000     0.001321   875.180746     0.000000 
  58.400000   743.400000     0.001345   868.276766     0.000000 
  58.420000   736.000000     0.001359   866.275369     0.000000 
  58.440000   724.000000     0.001381   869.297411     0.000000 
  58.460000   719.200000     0.001390   877.322484     0.000000 
  58.480000   716.100000     0.001396   890.068472     0.000000 
  58.500000   704.000000     0.001420   907.135065     0.000000 
  58.520000   704.000000     0.001420   926.856813     0.000000 
  58.540000   698.000000     0.001433   947.779104     0.000000 
  58.560000   691.900000     0.001445   967.710644     0.000000 
  58.580000   685.800000     0.001458   984.362321     0.000000 
  58.600000   688.800000     0.001452   995.945746     0.000000 
  58.620000   676.700000     0.001478  1001.508396     0.000000 
  58.640000   673.700000     0.001484  1000.650517     0.000000 
  58.660000   667.600000     0.001498   993.047368     0.000000 
  58.680000   673.700000     0.001484   978.110587     0.000000 
  58.700000   673.700000     0.001484   955.864547     0.000000 
  58.720000   658.500000     0.001519   927.344387     0.000000 
  58.740000   649.400000     0.001540   894.657223     0.000000 
  58.760000   651.000000     0.001536   860.335885     0.000000 
  58.780000   653.000000     0.001531   826.657074     0.000000 
  58.800000   643.300000     0.001554   795.314927     0.000000 
  58.820000   631.200000     0.001584   767.385151     0.000000 
  58.840000   631.200000     0.001584   743.402932     0.000000 
  58.860000   634.200000     0.001577   723.466188     0.000000 
  58.880000   631.200000     0.001584   707.344760     0.000000 
  58.900000   616.000000     0.001623   694.592162     0.000000 
  58.920000   603.900000     0.001656   684.652003     0.000000 
  58.940000   597.800000     0.001673   676.947969     0.000000 
  58.960000   594.800000     0.001681   670.948871     0.000000 
  58.980000   597.800000     0.001673   666.206237     0.000000 
  59.000000   591.700000     0.001690   662.367677     0.000000 
  59.020000   585.700000     0.001707   659.172794     0.000000 
  59.040000   585.700000     0.001707   656.439262     0.000000 
  59.060000   591.700000     0.001690   654.045509     0.000000 
  59.080000   591.000000     0.001692   651.914352     0.000000 
  59.100000   579.600000     0.001725   649.999767     0.000000 
  59.120000   576.600000     0.001734   648.277307     0.000000 
  59.140000   579.600000     0.001725   646.737629     0.000000 
  59.160000   581.000000     0.001721   645.382084     0.000000 
  59.180000   576.600000     0.001734   644.219214     0.000000 
  59.200000   573.500000     0.001744   643.261194     0.000000 
  59.220000   563.000000     0.001776   642.519598     0.000000 
  59.240000   564.400000     0.001772   642.000364     0.000000 
  59.260000   561.400000     0.001781   641.698363     0.000000 
  59.280000   567.000000     0.001764   641.592278     0.000000 
  59.300000   574.000000     0.001742   641.640497     0.000000 
  59.320000   570.500000     0.001753   641.778409     0.000000 
  59.340000   573.800000     0.001743   641.917614     0.000000 
  59.360000   567.100000     0.001763   641.949911     0.000000 
  59.380000   564.800000     0.001771   641.763344     0.000000 
  59.400000   564.800000     0.001771   641.276146     0.000000 
  59.420000   569.300000     0.001757   640.476049     0.000000 
  59.440000   562.600000     0.001777   639.434054     0.000000 
  59.460000   571.000000     0.001751   638.281076     0.000000 
  59.480000   566.000000     0.001767   637.172249     0.000000 
  59.500000   586.200000     0.001706   636.264132     0.000000 
  59.520000   576.000000     0.001736   635.706457     0.000000 
  59.540000   573.800000     0.001743   635.638969     0.000000 
  59.560000   577.000000     0.001733   636.186636     0.000000 
  59.580000   567.000000     0.001764   637.450910     0.000000 
  59.600000   562.600000     0.001777   639.496965     0.000000 
  59.620000   567.100000     0.001763   642.337908     0.000000 
  59.640000   569.300000     0.001757   645.917754     0.000000 
  59.660000   576.000000     0.001736   650.094969     0.000000 
  59.680000   567.100000     0.001763   654.628028     0.000000 
  59.700000   566.000000     0.001767   659.166142     0.000000 
  59.720000   562.000000     0.001779   663.258003     0.000000 
  59.740000   557.000000     0.001795   666.407266     0.000000 
  59.760000   564.800000     0.001771   668.193819     0.000000 
  59.780000   576.000000     0.001736   668.513085     0.000000 
  59.800000   576.000000     0.001736   667.205891     0.000000 
  59.820000   582.000000     0.001718   664.610240     0.000000 
  59.840000   583.000000     0.001715   661.182740     0.000000 
  59.860000   581.000000     0.001721   657.102854     0.000000 
  59.880000   573.800000     0.001743   651.711800     0.000000 
  59.900000   578.300000     0.001729   647.808066     0.000000 
  59.920000   580.000000     0.001724   642.993304     0.000000 
  59.940000   604.000000     0.001656   640.492800     0.000000 
  59.960000   603.400000     0.001657   638.921930     0.000000 
  59.980000   629.300000     0.001589   638.336222     0.000000 
  60.000000   637.000000     0.001570   638.729229     0.000000 
  60.020000   655.200000     0.001526   640.041418     0.000000 
  60.040000   672.400000     0.001487   642.166114     0.000000 
  60.060000   681.000000     0.001468   644.953480     0.000000 
  60.080000   720.000000     0.001389   648.213831     0.000000 
  60.100000   749.000000     0.001335   651.723229     0.000000 
  60.120000   745.000000     0.001342   655.240143     0.000000 
  60.140000   752.000000     0.001330   658.551150     0.000000 
  60.160000   750.000000     0.001333   661.559181     0.000000 
  60.180000   750.000000     0.001333   664.391055     0.000000 
  60.200000   754.000000     0.001326   667.462729     0.000000 
  60.220000   732.800000     0.001365   671.466257     0.000000 
  60.240000   738.000000     0.001355   677.310522     0.000000 
  60.260000   711.000000     0.001406   686.063980     0.000000 
  60.280000   706.900000     0.001415   698.905037     0.000000 
  60.300000   724.100000     0.001381   717.055562     0.000000 
  60.320000   698.300000     0.001432   741.678526     0.000000 
  60.340000   698.300000     0.001432   773.738227     0.000000 
  60.360000   724.100000     0.001381   813.837473     0.000000 
  60.380000   750.000000     0.001333   862.058613     0.000000 
  60.400000   801.700000     0.001247   915.787094     0.000000 
  60.420000   862.100000     0.001160   977.795221     0.000000 
  60.440000   931.000000     0.001074  1043.805604     0.000000 
  60.460000  1034.500000     0.000967  1110.735973     0.000000 
  60.480000  1136.000000     0.000880  1175.039256     0.000000 
  60.500000  1245.000000     0.000803  1233.815439     0.000000 
  60.520000  1405.200000     0.000712  1286.130193     0.000000 
  60.540000  1508.600000     0.000663  1333.187202     0.000000 
  60.560000  1706.900000     0.000586  1376.819263     0.000000 
  60.580000  1784.500000     0.000560  1417.458605     0.000000 
  60.600000  1844.800000     0.000542  1452.773914     0.000000 
  60.620000  1879.300000     0.000532  1477.526549     0.000000 
  60.640000  1896.600000     0.000527  1484.589866     0.000000 
  60.660000  1870.700000     0.000535  1467.586757     0.000000 
  60.680000  1833.000000     0.000546  1424.068188     0.000000 
  60.700000  1775.900000     0.000563  1357.086623     0.000000 
  60.720000  1698.300000     0.000589  1273.710030     0.000000 
  60.740000  1603.400000     0.000624  1182.287349     0.000000 
  60.760000  1517.200000     0.000659  1090.376168     0.000000 
  60.780000  1416.000000     0.000706  1003.834875     0.000000 
  60.800000  1327.600000     0.000753   926.639651     0.000000 
  60.820000  1201.000000     0.000833   861.001553     0.000000 
  60.840000  1129.300000     0.000886   807.612708     0.000000 
  60.860000  1004.000000     0.000996   765.979738     0.000000 
  60.880000   930.000000     0.001075   734.810865     0.000000 
  60.900000   867.000000     0.001153   712.415734     0.000000 
  60.920000   767.200000     0.001303   696.986801     0.000000 
  60.940000   719.000000     0.001391   686.916998     0.000000 
  60.960000   689.700000     0.001450   679.825469     0.000000 
  60.980000   662.000000     0.001511   676.931908     0.000000 
  61.000000   645.000000     0.001550   676.615015     0.000000 
  61.020000   620.700000     0.001611   678.732602     0.000000 
  61.040000   635.000000     0.001575   683.539436     0.000000 
  61.060000   630.000000     0.001587   691.713713     0.000000 
  61.080000   634.000000     0.001577   704.300389     0.000000 
  61.100000   672.400000     0.001487   720.010691     0.000000 
  61.120000   689.700000     0.001450   746.278824     0.000000 
  61.140000   755.000000     0.001325   782.314847     0.000000 
  61.160000   836.200000     0.001196   830.064733     0.000000 
  61.180000   974.100000     0.001027   891.124310     0.000000 
  61.200000  1086.200000     0.000921   964.040355     0.000000 
  61.220000  1211.000000     0.000826  1052.897146     0.000000 
  61.240000  1422.400000     0.000703  1153.362898     0.000000 
  61.260000  1620.700000     0.000617  1261.370937     0.000000 
  61.280000  1827.600000     0.000547  1370.578398     0.000000 
  61.300000  2025.900000     0.000494  1472.507952     0.000000 
  61.320000  2181.000000     0.000459  1557.735480     0.000000 
  61.340000  2267.200000     0.000441  1618.404313     0.000000 
  61.360000  2353.400000     0.000425  1650.750927     0.000000 
  61.380000  2439.700000     0.000410  1655.498088     0.000000 
  61.400000  2431.000000     0.000411  1636.089131     0.000000 
  61.420000  2431.000000     0.000411  1596.823121     0.000000 
  61.440000  2396.600000     0.000417  1542.134344     0.000000 
  61.460000  2336.200000     0.000428  1476.727514     0.000000 
  61.480000  2284.500000     0.000438  1405.673134     0.000000 
  61.500000  2224.100000     0.000450  1333.931655     0.000000 
  61.520000  2129.300000     0.000470  1265.864561     0.000000 
  61.540000  2077.600000     0.000481  1205.410361     0.000000 
  61.560000  2017.200000     0.000496  1156.473780     0.000000 
  61.580000  1939.700000     0.000516  1122.707549     0.000000 
  61.600000  1862.100000     0.000537  1106.762486     0.000000 
  61.620000  1784.500000     0.000560  1109.619396     0.000000 
  61.640000  1706.900000     0.000586  1130.264135     0.000000 
  61.660000  1629.300000     0.000614  1165.595517     0.000000 
  61.680000  1551.700000     0.000644  1210.424180     0.000000 
  61.700000  1474.100000     0.000678  1257.555752     0.000000 
  61.720000  1405.200000     0.000712  1298.224511     0.000000 
  61.740000  1362.100000     0.000734  1323.482827     0.000000 
  61.760000  1267.200000     0.000789  1326.839650     0.000000 
  61.780000  1206.900000     0.000829  1306.840166     0.000000 
  61.800000  1137.900000     0.000879  1267.276637     0.000000 
  61.820000  1069.000000     0.000935  1214.771841     0.000000 
  61.840000  1008.600000     0.000991  1155.936900     0.000000 
  61.860000   948.300000     0.001055  1095.712027     0.000000 
  61.880000   905.200000     0.001105  1037.176329     0.000000 
  61.900000   870.700000     0.001149   981.597814     0.000000 
  61.920000   827.600000     0.001208   929.422768     0.000000 
  61.940000   810.300000     0.001234   881.017742     0.000000 
  61.960000   767.200000     0.001303   836.880375     0.000000 
  61.980000   732.800000     0.001365   797.704469     0.000000 
  62.000000   706.900000     0.001415   763.688127     0.000000 
  62.020000   681.000000     0.001468   734.778719     0.000000 
  62.040000   663.800000     0.001506   710.692933     0.000000 
  62.060000   646.600000     0.001547   691.012495     0.000000 
  62.080000   629.300000     0.001589   675.241337     0.000000 
  62.100000   629.300000     0.001589   662.838522     0.000000 
  62.120000   620.700000     0.001611   653.246635     0.000000 
  62.140000   620.700000     0.001611   645.922597     0.000000 
  62.160000   612.100000     0.001634   640.367710     0.000000 
  62.180000   603.400000     0.001657   636.150718     0.000000 
  62.200000   603.400000     0.001657   632.919819     0.000000 
  62.220000   603.400000     0.001657   630.403299     0.000000 
  62.240000   599.000000     0.001669   628.401441     0.000000 
  62.260000   603.400000     0.001657   626.773582     0.000000 
  62.280000   594.800000     0.001681   625.423960     0.000000 
  62.300000   592.000000     0.001689   624.288842     0.000000 
  62.320000   603.400000     0.001657   623.326189     0.000000 
  62.340000   586.200000     0.001706   622.508107     0.000000 
  62.360000   594.800000     0.001681   621.815740     0.000000 
  62.380000   594.800000     0.001681   621.236037     0.000000 
  62.400000   594.800000     0.001681   620.759776     0.000000 
  62.420000   596.200000     0.001677   620.380459     0.000000 
  62.440000   591.700000     0.001690   620.093675     0.000000 
  62.460000   569.300000     0.001757   619.896769     0.000000 
  62.480000   569.300000     0.001757   619.788694     0.000000 
  62.500000   582.800000     0.001716   619.769968     0.000000 
  62.520000   587.200000     0.001703   619.842751     0.000000 
  62.540000   591.000000     0.001692   620.011026     0.000000 
  62.560000   582.800000     0.001716   620.280975     0.000000 
  62.580000   578.300000     0.001729   620.661674     0.000000 
  62.600000   587.000000     0.001704   621.166365     0.000000 
  62.620000   591.700000     0.001690   621.814779     0.000000 
  62.640000   597.000000     0.001675   622.637228     0.000000 
  62.660000   589.000000     0.001698   623.678090     0.000000 
  62.680000   582.800000     0.001716   625.021104     0.000000 
  62.700000   582.800000     0.001716   626.785470     0.000000 
  62.720000   594.000000     0.001684   629.164190     0.000000 
  62.740000   575.000000     0.001739   632.451717     0.000000 
  62.760000   584.000000     0.001712   638.016950     0.000000 
  62.780000   600.700000     0.001665   644.597315     0.000000 
  62.800000   600.000000     0.001667   653.908411     0.000000 
  62.820000   600.700000     0.001665   666.917534     0.000000 
  62.840000   618.600000     0.001617   684.712590     0.000000 
  62.860000   627.600000     0.001593   708.385213     0.000000 
  62.880000   659.000000     0.001517   738.850730     0.000000 
  62.900000   703.800000     0.001421   776.615387     0.000000 
  62.920000   748.600000     0.001336   821.513917     0.000000 
  62.940000   824.800000     0.001212   872.445553     0.000000 
  62.960000   905.500000     0.001104   927.136172     0.000000 
  62.980000   981.700000     0.001019   981.977256     0.000000 
  63.000000  1053.400000     0.000949  1032.087960     0.000000 
  63.020000  1147.600000     0.000871  1071.868430     0.000000 
  63.040000  1187.900000     0.000842  1096.145885     0.000000 
  63.060000  1214.800000     0.000823  1101.541314     0.000000 
  63.080000  1201.400000     0.000832  1087.224684     0.000000 
  63.100000  1179.000000     0.000848  1055.183541     0.000000 
  63.120000  1134.100000     0.000882  1009.814461     0.000000 
  63.140000  1093.800000     0.000914   956.717226     0.000000 
  63.160000  1044.500000     0.000957   901.310242     0.000000 
  63.180000  1008.600000     0.000991   847.925058     0.000000 
  63.200000   972.800000     0.001028   799.536396     0.000000 
  63.220000   941.400000     0.001062   757.842898     0.000000 
  63.240000   910.000000     0.001099   723.475871     0.000000 
  63.260000   869.700000     0.001150   696.251905     0.000000 
  63.280000   833.800000     0.001199   675.439050     0.000000 
  63.300000   771.000000     0.001297   660.009353     0.000000 
  63.320000   717.200000     0.001394   648.850192     0.000000 
  63.340000   681.400000     0.001468   640.916079     0.000000 
  63.360000   650.000000     0.001538   635.316948     0.000000 
  63.380000   614.100000     0.001628   631.351705     0.000000 
  63.400000   605.200000     0.001652   628.502881     0.000000 
  63.420000   587.200000     0.001703   626.405417     0.000000 
  63.440000   587.200000     0.001703   624.822838     0.000000 
  63.460000   569.300000     0.001757   623.608786     0.000000 
  63.480000   573.800000     0.001743   622.667435     0.000000 
  63.500000   573.800000     0.001743   621.949450     0.000000 
  63.520000   569.000000     0.001757   621.435390     0.000000 
  63.540000   578.300000     0.001729   621.129713     0.000000 
  63.560000   571.000000     0.001751   621.058736     0.000000 
  63.580000   567.000000     0.001764   621.269823     0.000000 
  63.600000   576.000000     0.001736   621.834278     0.000000 
  63.620000   585.000000     0.001709   622.840860     0.000000 
  63.640000   573.800000     0.001743   624.393000     0.000000 
  63.660000   573.800000     0.001743   626.597393     0.000000 
  63.680000   578.300000     0.001729   629.548050     0.000000 
  63.700000   580.500000     0.001723   633.305736     0.000000 
  63.720000   571.600000     0.001749   637.873970     0.000000 
  63.740000   579.000000     0.001727   643.172718     0.000000 
  63.760000   582.800000     0.001716   649.011188     0.000000 
  63.780000   583.000000     0.001715   654.908547     0.000000 
  63.800000   580.500000     0.001723   660.730907     0.000000 
  63.820000   573.800000     0.001743   665.806999     0.000000 
  63.840000   578.300000     0.001729   669.693171     0.000000 
  63.860000   588.000000     0.001701   672.119352     0.000000 
  63.880000   580.000000     0.001724   672.979989     0.000000 
  63.900000   578.000000     0.001730   672.272768     0.000000 
  63.920000   578.000000     0.001730   670.122241     0.000000 
  63.940000   576.000000     0.001736   666.604385     0.000000 
  63.960000   582.800000     0.001716   662.782475     0.000000 
  63.980000   594.000000     0.001684   659.082067     0.000000 
  64.000000   591.700000     0.001690   656.166205     0.000000 
  64.020000   580.500000     0.001723   654.124540     0.000000 
  64.040000   580.500000     0.001723   653.283030     0.000000 
  64.060000   583.900000     0.001713   653.643940     0.000000 
  64.080000   579.200000     0.001727   656.632608     0.000000 
  64.100000   572.100000     0.001748   658.794606     0.000000 
  64.120000   572.100000     0.001748   661.321140     0.000000 
  64.140000   576.800000     0.001734   663.880106     0.000000 
  64.160000   572.100000     0.001748   666.321437     0.000000 
  64.180000   574.500000     0.001741   668.712572     0.000000 
  64.200000   574.500000     0.001741   671.222042     0.000000 
  64.220000   588.600000     0.001699   675.641348     0.000000 
  64.240000   597.900000     0.001673   678.515102     0.000000 
  64.260000   612.000000     0.001634   681.207647     0.000000 
  64.280000   630.800000     0.001585   683.264747     0.000000 
  64.300000   654.200000     0.001529   684.256628     0.000000 
  64.320000   670.600000     0.001491   683.945306     0.000000 
  64.340000   668.300000     0.001496   682.297795     0.000000 
  64.360000   654.200000     0.001529   679.363755     0.000000 
  64.380000   630.800000     0.001585   675.203740     0.000000 
  64.400000   628.400000     0.001591   669.957508     0.000000 
  64.420000   637.800000     0.001568   663.933644     0.000000 
  64.440000   661.200000     0.001512   657.576293     0.000000 
  64.460000   673.000000     0.001486   651.336088     0.000000 
  64.480000   677.000000     0.001477   645.566044     0.000000 
  64.500000   668.300000     0.001496   640.489711     0.000000 
  64.520000   640.100000     0.001562   636.214121     0.000000 
  64.540000   630.800000     0.001585   632.755614     0.000000 
  64.560000   607.300000     0.001647   630.065780     0.000000 
  64.580000   597.900000     0.001673   628.055053     0.000000 
  64.600000   595.600000     0.001679   626.351266     0.000000 
  64.620000   597.900000     0.001673   625.368486     0.000000 
  64.640000   602.600000     0.001659   624.736625     0.000000 
  64.660000   600.300000     0.001666   624.297403     0.000000 
  64.680000   593.200000     0.001686   624.121480     0.000000 
  64.700000   581.500000     0.001720   624.087496     0.000000 
  64.720000   572.100000     0.001748   624.049852     0.000000 
  64.740000   562.800000     0.001777   624.213063     0.000000 
  64.760000   561.000000     0.001783   624.456466     0.000000 
  64.780000   562.800000     0.001777   624.783220     0.000000 
  64.800000   553.400000     0.001807   625.130844     0.000000 
  64.820000   553.600000     0.001806   625.678004     0.000000 
  64.840000   558.100000     0.001792   626.383801     0.000000 
  64.860000   555.900000     0.001799   627.295133     0.000000 
  64.880000   557.000000     0.001795   628.466179     0.000000 
  64.900000   558.000000     0.001792   629.952006     0.000000 
  64.920000   550.000000     0.001818   631.798720     0.000000 
  64.940000   562.600000     0.001777   634.030872     0.000000 
  64.960000   567.100000     0.001763   636.637735     0.000000 
  64.980000   560.300000     0.001785   639.560302     0.000000 
  65.000000   555.900000     0.001799   642.680163     0.000000 
  65.020000   553.600000     0.001806   645.553627     0.000000 
  65.040000   562.600000     0.001777   648.440037     0.000000 
  65.060000   564.800000     0.001771   651.726119     0.000000 
  65.080000   558.100000     0.001792   653.217740     0.000000 
  65.100000   553.600000     0.001806   653.698139     0.000000 
  65.120000   553.600000     0.001806   653.221344     0.000000 
  65.140000   555.900000     0.001799   652.026323     0.000000 
  65.160000   564.800000     0.001771   650.424502     0.000000 
  65.180000   558.100000     0.001792   648.646510     0.000000 
  65.200000   555.900000     0.001799   647.078542     0.000000 
  65.220000   553.600000     0.001806   645.735486     0.000000 
  65.240000   560.300000     0.001785   644.762466     0.000000 
  65.260000   564.800000     0.001771   644.210208     0.000000 
  65.280000   562.600000     0.001777   644.084660     0.000000 
  65.300000   555.900000     0.001799   644.365140     0.000000 
  65.320000   558.100000     0.001792   645.014056     0.000000 
  65.340000   562.600000     0.001777   645.989540     0.000000 
  65.360000   560.300000     0.001785   647.254029     0.000000 
  65.380000   555.900000     0.001799   648.779397     0.000000 
  65.400000   560.300000     0.001785   650.549220     0.000000 
  65.420000   562.600000     0.001777   652.559017     0.000000 
  65.440000   562.600000     0.001777   654.815593     0.000000 
  65.460000   560.300000     0.001785   657.336122     0.000000 
  65.480000   562.600000     0.001777   660.147651     0.000000 
  65.500000   567.100000     0.001763   663.287480     0.000000 
  65.520000   567.100000     0.001763   666.804952     0.000000 
  65.540000   562.600000     0.001777   670.765591     0.000000 
  65.560000   564.800000     0.001771   675.259292     0.000000 
  65.580000   569.300000     0.001757   680.415572     0.000000 
  65.600000   571.600000     0.001749   686.430716     0.000000 
  65.620000   576.000000     0.001736   693.613778     0.000000 
  65.640000   587.200000     0.001703   702.459955     0.000000 
  65.660000   600.000000     0.001667   713.759407     0.000000 
  65.680000   594.800000     0.001681   728.744592     0.000000 
  65.700000   603.400000     0.001657   749.267182     0.000000 
  65.720000   620.700000     0.001611   777.975082     0.000000 
  65.740000   655.200000     0.001526   818.432917     0.000000 
  65.760000   681.000000     0.001468   875.102913     0.000000 
  65.780000   741.400000     0.001349   953.090495     0.000000 
  65.800000   870.700000     0.001149  1057.575801     0.000000 
  65.820000  1017.200000     0.000983  1192.908580     0.000000 
  65.840000  1239.000000     0.000807  1361.432077     0.000000 
  65.860000  1491.000000     0.000671  1562.186702     0.000000 
  65.880000  1739.000000     0.000575  1789.670420     0.000000 
  65.900000  2063.000000     0.000485  2032.760693     0.000000 
  65.920000  2244.000000     0.000446  2273.842747     0.000000 
  65.940000  2387.900000     0.000419  2488.421905     0.000000 
  65.960000  2383.000000     0.000420  2646.975953     0.000000 
  65.980000  2291.000000     0.000436  2721.484361     0.000000 
  66.000000  2137.900000     0.000468  2696.612424     0.000000 
  66.020000  1950.000000     0.000513  2577.839132     0.000000 
  66.040000  1746.000000     0.000573  2388.394249     0.000000 
  66.060000  1663.800000     0.000601  2158.261773     0.000000 
  66.080000  1639.000000     0.000610  1914.872802     0.000000 
  66.100000  1629.300000     0.000614  1679.265511     0.000000 
  66.120000  1594.800000     0.000627  1465.680672     0.000000 
  66.140000  1551.000000     0.000645  1282.272552     0.000000 
  66.160000  1474.100000     0.000678  1132.099112     0.000000 
  66.180000  1301.700000     0.000768  1014.287814     0.000000 
  66.200000  1172.400000     0.000853   925.323806     0.000000 
  66.220000  1000.000000     0.001000   860.307986     0.000000 
  66.240000   922.400000     0.001084   814.009963     0.000000 
  66.260000   827.600000     0.001208   781.604837     0.000000 
  66.280000   724.100000     0.001381   759.075271     0.000000 
  66.300000   658.000000     0.001520   743.232688     0.000000 
  66.320000   629.300000     0.001589   732.064354     0.000000 
  66.340000   620.700000     0.001611   723.845564     0.000000 
  66.360000   603.400000     0.001657   717.821640     0.000000 
  66.380000   594.800000     0.001681   713.261271     0.000000 
  66.400000   602.000000     0.001661   709.782699     0.000000 
  66.420000   612.100000     0.001634   707.149869     0.000000 
  66.440000   603.400000     0.001657   705.214076     0.000000 
  66.460000   603.000000     0.001658   703.878528     0.000000 
  66.480000   612.100000     0.001634   703.292718     0.000000 
  66.500000   594.800000     0.001681   702.984590     0.000000 
  66.520000   611.000000     0.001637   703.134960     0.000000 
  66.540000   612.100000     0.001634   703.723091     0.000000 
  66.560000   593.000000     0.001686   704.736915     0.000000 
  66.580000   618.000000     0.001618   706.171998     0.000000 
  66.600000   606.000000     0.001650   708.031009     0.000000 
  66.620000   614.000000     0.001629   710.323485     0.000000 
  66.640000   612.100000     0.001634   713.065897     0.000000 
  66.660000   603.400000     0.001657   716.281971     0.000000 
  66.680000   639.000000     0.001565   720.003233     0.000000 
  66.700000   617.000000     0.001621   724.269908     0.000000 
  66.720000   600.000000     0.001667   729.132096     0.000000 
  66.740000   634.000000     0.001577   734.651670     0.000000 
  66.760000   638.000000     0.001567   740.904917     0.000000 
  66.780000   650.000000     0.001538   747.986715     0.000000 
  66.800000   635.000000     0.001575   756.017241     0.000000 
  66.820000   606.000000     0.001650   765.153080     0.000000 
  66.840000   666.000000     0.001502   775.605819     0.000000 
  66.860000   705.000000     0.001418   787.672633     0.000000 
  66.880000   715.000000     0.001399   801.785989     0.000000 
  66.900000   661.000000     0.001513   818.590815     0.000000 
  66.920000   747.000000     0.001339   839.059395     0.000000 
  66.940000   718.000000     0.001393   864.652712     0.000000 
  66.960000   788.000000     0.001269   897.531435     0.000000 
  66.980000   889.000000     0.001125   940.807116     0.000000 
  67.000000   932.000000     0.001073   998.802814     0.000000 
  67.020000  1090.000000     0.000917  1077.262962     0.000000 
  67.040000  1392.000000     0.000718  1183.419887     0.000000 
  67.060000  1718.000000     0.000582  1325.799544     0.000000 
  67.080000  2322.000000     0.000431  1513.634024     0.000000 
  67.100000  2900.000000     0.000345  1755.869246     0.000000 
  67.120000  3671.000000     0.000272  2059.575797     0.000000 
  67.140000  4371.000000     0.000229  2428.150210     0.000000 
  67.160000  4989.000000     0.000200  2859.476148     0.000000 
  67.180000  5239.300000     0.000191  3344.662374     0.000000 
  67.200000  5402.000000     0.000185  3867.610118     0.000000 
  67.220000  5283.000000     0.000189  4404.315860     0.000000 
  67.240000  4890.000000     0.000204  4921.668899     0.000000 
  67.260000  4633.000000     0.000216  5379.132956     0.000000 
  67.280000  4549.000000     0.000220  5739.330559     0.000000 
  67.300000  4782.800000     0.000209  5984.823760     0.000000 
  67.320000  5170.000000     0.000193  6124.147441     0.000000 
  67.340000  5858.000000     0.000171  6178.039414     0.000000 
  67.360000  6436.000000     0.000155  6158.498475     0.000000 
  67.380000  6833.000000     0.000146  6056.712207     0.000000 
  67.400000  7023.100000     0.000142  5849.138364     0.000000 
  67.420000  6797.000000     0.000147  5516.539495     0.000000 
  67.440000  6263.000000     0.000160  5065.293027     0.000000 
  67.460000  5479.000000     0.000183  4530.947216     0.000000 
  67.480000  4718.000000     0.000212  3962.327917     0.000000 
  67.500000  3972.000000     0.000252  3403.853788     0.000000 
  67.520000  3517.000000     0.000284  2887.641917     0.000000 
  67.540000  3216.000000     0.000311  2433.247778     0.000000 
  67.560000  3146.600000     0.000318  2049.913445     0.000000 
  67.580000  3096.200000     0.000323  1738.754340     0.000000 
  67.600000  2964.000000     0.000337  1494.959176     0.000000 
  67.620000  2685.000000     0.000372  1309.879388     0.000000 
  67.640000  2541.000000     0.000394  1173.231919     0.000000 
  67.660000  2196.000000     0.000455  1074.642526     0.000000 
  67.680000  1855.000000     0.000539  1003.419342     0.000000 
  67.700000  1552.000000     0.000644   952.295491     0.000000 
  67.720000  1263.000000     0.000792   915.224241     0.000000 
  67.740000  1013.000000     0.000987   887.825397     0.000000 
  67.760000   926.000000     0.001080   867.143979     0.000000 
  67.780000   830.000000     0.001205   851.250580     0.000000 
  67.800000   813.000000     0.001230   838.940325     0.000000 
  67.820000   704.000000     0.001420   829.493521     0.000000 
  67.840000   717.000000     0.001395   822.516013     0.000000 
  67.860000   713.000000     0.001403   817.851923     0.000000 
  67.880000   724.000000     0.001381   815.559194     0.000000 
  67.900000   693.000000     0.001443   815.941768     0.000000 
  67.920000   706.000000     0.001416   819.635677     0.000000 
  67.940000   735.000000     0.001361   827.780929     0.000000 
  67.960000   726.000000     0.001377   842.055592     0.000000 
  67.980000   720.000000     0.001389   865.065011     0.000000 
  68.000000   719.000000     0.001391   900.327046     0.000000 
  68.020000   855.900000     0.001168   952.716110     0.000000 
  68.040000   931.400000     0.001074  1026.494394     0.000000 
  68.060000  1082.400000     0.000924  1127.272511     0.000000 
  68.080000  1289.000000     0.000776  1259.376474     0.000000 
  68.100000  1535.500000     0.000651  1425.457550     0.000000 
  68.120000  1862.800000     0.000537  1623.546726     0.000000 
  68.140000  2164.800000     0.000462  1848.155160     0.000000 
  68.160000  2416.600000     0.000414  2087.478526     0.000000 
  68.180000  2511.000000     0.000398  2322.720493     0.000000 
  68.200000  2542.400000     0.000393  2527.848776     0.000000 
  68.220000  2366.200000     0.000423  2671.640187     0.000000 
  68.240000  2290.700000     0.000437  2726.915768     0.000000 
  68.260000  2064.100000     0.000484  2682.562595     0.000000 
  68.280000  1861.000000     0.000537  2549.934314     0.000000 
  68.300000  1837.600000     0.000544  2356.062362     0.000000 
  68.320000  1762.100000     0.000568  2131.030555     0.000000 
  68.340000  1736.900000     0.000576  1899.647150     0.000000 
  68.360000  1711.700000     0.000584  1679.743753     0.000000 
  68.380000  1736.900000     0.000576  1480.980344     0.000000 
  68.400000  1636.200000     0.000611  1309.500582     0.000000 
  68.420000  1535.500000     0.000651  1167.824085     0.000000 
  68.440000  1429.000000     0.000700  1053.868903     0.000000 
  68.460000  1261.000000     0.000793   965.246296     0.000000 
  68.480000  1092.000000     0.000916   897.867089     0.000000 
  68.500000   998.000000     0.001002   847.389463     0.000000 
  68.520000   830.700000     0.001204   809.824822     0.000000 
  68.540000   805.500000     0.001241   781.840243     0.000000 
  68.560000   780.300000     0.001282   760.827149     0.000000 
  68.580000   730.000000     0.001370   745.176716     0.000000 
  68.600000   701.000000     0.001427   732.792236     0.000000 
  68.620000   689.700000     0.001450   723.003460     0.000000 
  68.640000   672.400000     0.001487   715.134603     0.000000 
  68.660000   648.300000     0.001542   708.623118     0.000000 
  68.680000   627.600000     0.001593   703.157926     0.000000 
  68.700000   617.200000     0.001620   698.500612     0.000000 
  68.720000   613.800000     0.001629   694.486717     0.000000 
  68.740000   600.000000     0.001667   691.402448     0.000000 
  68.760000   589.700000     0.001696   688.380539     0.000000 
  68.780000   589.700000     0.001696   685.768184     0.000000 
  68.800000   582.800000     0.001716   683.542980     0.000000 
  68.820000   589.700000     0.001696   681.704205     0.000000 
  68.840000   582.800000     0.001716   680.271200     0.000000 
  68.860000   569.000000     0.001757   679.280573     0.000000 
  68.880000   582.000000     0.001718   678.780393     0.000000 
  68.900000   591.000000     0.001692   678.820240     0.000000 
  68.920000   582.800000     0.001716   679.436858     0.000000 
  68.940000   578.000000     0.001730   680.636671     0.000000 
  68.960000   572.400000     0.001747   682.377290     0.000000 
  68.980000   579.300000     0.001726   684.549848     0.000000 
  69.000000   579.300000     0.001726   686.962450     0.000000 
  69.020000   586.200000     0.001706   689.326094     0.000000 
  69.040000   575.000000     0.001739   691.257148     0.000000 
  69.060000   574.000000     0.001742   692.335647     0.000000 
  69.080000   579.300000     0.001726   692.250927     0.000000 
  69.100000   579.300000     0.001726   690.964343     0.000000 
  69.120000   579.300000     0.001726   688.733952     0.000000 
  69.140000   586.200000     0.001706   685.973739     0.000000 
  69.160000   575.900000     0.001736   683.091833     0.000000 
  69.180000   565.500000     0.001768   680.411465     0.000000 
  69.200000   569.000000     0.001757   678.160536     0.000000 
  69.220000   572.400000     0.001747   675.555001     0.000000 
  69.240000   579.300000     0.001726   674.559131     0.000000 
  69.260000   572.400000     0.001747   674.347603     0.000000 
  69.280000   575.900000     0.001736   674.861305     0.000000 
  69.300000   584.100000     0.001712   676.264270     0.000000 
  69.320000   603.400000     0.001657   678.753267     0.000000 
  69.340000   617.900000     0.001618   682.668001     0.000000 
  69.360000   622.800000     0.001606   688.537705     0.000000 
  69.380000   642.100000     0.001557   697.110893     0.000000 
  69.400000   680.700000     0.001469   709.349637     0.000000 
  69.420000   743.400000     0.001345   726.366748     0.000000 
  69.440000   815.900000     0.001226   749.592637     0.000000 
  69.460000   926.900000     0.001079   779.346229     0.000000 
  69.480000  1057.200000     0.000946   816.370655     0.000000 
  69.500000  1197.200000     0.000835   860.321179     0.000000 
  69.520000  1298.600000     0.000770   909.761516     0.000000 
  69.540000  1380.700000     0.000724   961.873310     0.000000 
  69.560000  1385.500000     0.000722  1012.201663     0.000000 
  69.580000  1346.900000     0.000742  1054.639912     0.000000 
  69.600000  1235.900000     0.000809  1082.237953     0.000000 
  69.620000  1129.700000     0.000885  1089.382931     0.000000 
  69.640000  1057.200000     0.000946  1074.715377     0.000000 
  69.660000  1004.100000     0.000996  1041.210505     0.000000 
  69.680000   994.500000     0.001006   995.543779     0.000000 
  69.700000   999.300000     0.001001   944.528041     0.000000 
  69.720000  1013.800000     0.000986   893.669257     0.000000 
  69.740000  1033.100000     0.000968   846.767740     0.000000 
  69.760000  1013.800000     0.000986   806.074738     0.000000 
  69.780000   984.800000     0.001015   772.569922     0.000000 
  69.800000   912.400000     0.001096   746.256664     0.000000 
  69.820000   854.500000     0.001170   726.468808     0.000000 
  69.840000   777.200000     0.001287   712.169486     0.000000 
  69.860000   719.300000     0.001390   702.464750     0.000000 
  69.880000   680.700000     0.001469   695.758559     0.000000 
  69.900000   651.700000     0.001534   691.396239     0.000000 
  69.920000   632.400000     0.001581   688.767407     0.000000 
  69.940000   627.600000     0.001593   687.196691     0.000000 
  69.960000   617.900000     0.001618   686.437871     0.000000 
  69.980000   608.300000     0.001644   686.378827     0.000000 
  70.000000   613.100000     0.001631   687.017303     0.000000 
  70.020000   608.300000     0.001644   687.760984     0.000000 
  70.040000   608.300000     0.001644   688.897655     0.000000 
  70.060000   608.300000     0.001644   690.437046     0.000000 
  70.080000   608.300000     0.001644   692.420099     0.000000 
  70.100000   606.000000     0.001650   694.933431     0.000000 
  70.120000   625.900000     0.001598   698.083957     0.000000 
  70.140000   637.200000     0.001569   702.070652     0.000000 
  70.160000   637.200000     0.001569   707.162757     0.000000 
  70.180000   648.600000     0.001542   713.738063     0.000000 
  70.200000   682.800000     0.001465   722.296015     0.000000 
  70.220000   712.000000     0.001404   733.467627     0.000000 
  70.240000   725.000000     0.001379   748.003683     0.000000 
  70.260000   778.000000     0.001285   766.728203     0.000000 
  70.280000   805.000000     0.001242   790.440804     0.000000 
  70.300000   856.000000     0.001168   819.754864     0.000000 
  70.320000   905.000000     0.001105   854.877152     0.000000 
  70.340000  1020.000000     0.000980   895.383197     0.000000 
  70.360000  1084.000000     0.000923   940.104413     0.000000 
  70.380000  1251.000000     0.000799   987.197008     0.000000 
  70.400000  1387.000000     0.000721  1034.075775     0.000000 
  70.420000  1524.800000     0.000656  1077.824606     0.000000 
  70.440000  1581.700000     0.000632  1114.265477     0.000000 
  70.460000  1604.500000     0.000623  1139.526990     0.000000 
  70.480000  1604.500000     0.000623  1152.334648     0.000000 
  70.500000  1581.000000     0.000633  1154.654403     0.000000 
  70.520000  1593.100000     0.000628  1157.654177     0.000000 
  70.540000  1627.200000     0.000615  1169.834638     0.000000 
  70.560000  1752.400000     0.000571  1201.029951     0.000000 
  70.580000  1942.000000     0.000515  1259.483495     0.000000 
  70.600000  2141.000000     0.000467  1350.949237     0.000000 
  70.620000  2422.000000     0.000413  1476.080934     0.000000 
  70.640000  2712.000000     0.000369  1636.132654     0.000000 
  70.660000  2954.000000     0.000339  1821.826545     0.000000 
  70.680000  3061.000000     0.000327  2019.098161     0.000000 
  70.700000  3106.600000     0.000322  2206.574439     0.000000 
  70.720000  3057.000000     0.000327  2356.321926     0.000000 
  70.740000  2914.000000     0.000343  2439.286394     0.000000 
  70.760000  2591.000000     0.000386  2436.660843     0.000000 
  70.780000  2435.200000     0.000411  2350.156308     0.000000 
  70.800000  2253.100000     0.000444  2200.795665     0.000000 
  70.820000  2162.100000     0.000463  2017.664293     0.000000 
  70.840000  2124.000000     0.000471  1827.675623     0.000000 
  70.860000  2155.000000     0.000464  1651.590899     0.000000 
  70.880000  2203.000000     0.000454  1503.958749     0.000000 
  70.900000  2275.900000     0.000439  1394.103473     0.000000 
  70.920000  2321.400000     0.000431  1327.181661     0.000000 
  70.940000  2310.000000     0.000433  1305.163318     0.000000 
  70.960000  2264.500000     0.000442  1327.635894     0.000000 
  70.980000  2189.000000     0.000457  1392.281653     0.000000 
  71.000000  2118.000000     0.000472  1494.952495     0.000000 
  71.020000  2009.000000     0.000498  1629.425242     0.000000 
  71.040000  1941.000000     0.000515  1786.969981     0.000000 
  71.060000  1858.000000     0.000538  1955.698603     0.000000 
  71.080000  1813.000000     0.000552  2119.990255     0.000000 
  71.100000  1763.800000     0.000567  2261.709347     0.000000 
  71.120000  1791.000000     0.000558  2364.752000     0.000000 
  71.140000  1843.400000     0.000542  2419.963824     0.000000 
  71.160000  1911.700000     0.000523  2425.527505     0.000000 
  71.180000  1942.000000     0.000515  2384.889711     0.000000 
  71.200000  1956.000000     0.000511  2307.364662     0.000000 
  71.220000  1975.000000     0.000506  2208.837386     0.000000 
  71.240000  2017.000000     0.000496  2108.104849     0.000000 
  71.260000  2041.000000     0.000490  2021.880260     0.000000 
  71.280000  2082.400000     0.000480  1963.150983     0.000000 
  71.300000  2229.000000     0.000449  1942.214370     0.000000 
  71.320000  2465.000000     0.000406  1966.905335     0.000000 
  71.340000  2626.000000     0.000381  2040.898277     0.000000 
  71.360000  2755.000000     0.000363  2161.604419     0.000000 
  71.380000  2981.400000     0.000335  2318.757298     0.000000 
  71.400000  3095.200000     0.000323  2493.945280     0.000000 
  71.420000  3117.900000     0.000321  2662.303568     0.000000 
  71.440000  3136.000000     0.000319  2797.099761     0.000000 
  71.460000  3156.000000     0.000317  2880.765557     0.000000 
  71.480000  3152.100000     0.000317  2902.379214     0.000000 
  71.500000  3129.300000     0.000320  2860.945220     0.000000 
  71.520000  3106.600000     0.000322  2765.788831     0.000000 
  71.540000  3093.000000     0.000323  2637.076464     0.000000 
  71.560000  3027.000000     0.000330  2499.561512     0.000000 
  71.580000  2981.000000     0.000335  2373.697355     0.000000 
  71.600000  2868.000000     0.000349  2270.089607     0.000000 
  71.620000  2765.200000     0.000362  2189.215699     0.000000 
  71.640000  2674.100000     0.000374  2124.562986     0.000000 
  71.660000  2571.700000     0.000389  2068.665433     0.000000 
  71.680000  2492.100000     0.000401  2018.401075     0.000000 
  71.700000  2435.200000     0.000411  1974.866095     0.000000 
  71.720000  2388.000000     0.000419  1938.998030     0.000000 
  71.740000  2266.000000     0.000441  1907.863376     0.000000 
  71.760000  2099.000000     0.000476  1873.496431     0.000000 
  71.780000  1926.000000     0.000519  1824.475440     0.000000 
  71.800000  1724.000000     0.000580  1751.029475     0.000000 
  71.820000  1577.000000     0.000634  1651.301962     0.000000 
  71.840000  1367.000000     0.000732  1532.658742     0.000000 
  71.860000  1253.000000     0.000798  1406.809309     0.000000 
  71.880000  1226.000000     0.000816  1284.387692     0.000000 
  71.900000  1157.000000     0.000864  1172.734445     0.000000 
  71.920000  1103.800000     0.000906  1075.987589     0.000000 
  71.940000  1058.300000     0.000945   995.780575     0.000000 
  71.960000  1015.000000     0.000985   931.899169     0.000000 
  71.980000   965.000000     0.001036   882.866483     0.000000 
  72.000000   897.000000     0.001115   846.498288     0.000000 
  72.020000   864.800000     0.001156   820.402484     0.000000 
  72.040000   807.900000     0.001238   802.366935     0.000000 
  72.060000   773.800000     0.001292   790.600531     0.000000 
  72.080000   728.300000     0.001373   783.829263     0.000000 
  72.100000   684.000000     0.001462   781.277113     0.000000 
  72.120000   696.000000     0.001437   782.572754     0.000000 
  72.140000   716.900000     0.001395   787.621607     0.000000 
  72.160000   731.000000     0.001368   796.476081     0.000000 
  72.180000   773.800000     0.001292   809.226959     0.000000 
  72.200000   821.000000     0.001218   825.926594     0.000000 
  72.220000   876.200000     0.001141   846.507343     0.000000 
  72.240000   949.000000     0.001054   870.712619     0.000000 
  72.260000  1035.500000     0.000966   898.097744     0.000000 
  72.280000  1115.200000     0.000897   928.179435     0.000000 
  72.300000  1183.400000     0.000845   961.124545     0.000000 
  72.320000  1240.300000     0.000806   998.276239     0.000000 
  72.340000  1285.900000     0.000778  1041.682882     0.000000 
  72.360000  1274.500000     0.000785  1092.719523     0.000000 
  72.380000  1240.300000     0.000806  1150.793001     0.000000 
  72.400000  1194.800000     0.000837  1212.549876     0.000000 
  72.420000  1169.000000     0.000855  1271.479746     0.000000 
  72.440000  1099.000000     0.000910  1318.399145     0.000000 
  72.460000  1040.000000     0.000962  1344.212402     0.000000 
  72.480000  1026.000000     0.000975  1344.931188     0.000000 
  72.500000  1043.000000     0.000959  1324.835508     0.000000 
  72.520000  1071.000000     0.000934  1294.004072     0.000000 
  72.540000  1109.000000     0.000902  1262.970536     0.000000 
  72.560000  1160.700000     0.000862  1239.197836     0.000000 
  72.580000  1217.600000     0.000821  1226.088528     0.000000 
  72.600000  1284.000000     0.000779  1223.053478     0.000000 
  72.620000  1331.400000     0.000751  1225.884742     0.000000 
  72.640000  1433.800000     0.000697  1227.973171     0.000000 
  72.660000  1504.000000     0.000665  1223.343696     0.000000 
  72.680000  1577.000000     0.000634  1211.252206     0.000000 
  72.700000  1627.200000     0.000615  1194.924256     0.000000 
  72.720000  1661.400000     0.000602  1182.940636     0.000000 
  72.740000  1638.600000     0.000610  1183.157141     0.000000 
  72.760000  1617.000000     0.000618  1201.364349     0.000000 
  72.780000  1536.200000     0.000651  1240.958253     0.000000 
  72.800000  1485.000000     0.000673  1302.484900     0.000000 
  72.820000  1433.800000     0.000697  1382.832176     0.000000 
  72.840000  1445.200000     0.000692  1475.133440     0.000000 
  72.860000  1479.300000     0.000676  1569.275067     0.000000 
  72.880000  1536.200000     0.000651  1654.809323     0.000000 
  72.900000  1621.000000     0.000617  1724.777813     0.000000 
  72.920000  1695.500000     0.000590  1776.376116     0.000000 
  72.940000  1706.900000     0.000586  1807.835443     0.000000 
  72.960000  1684.100000     0.000594  1815.404393     0.000000 
  72.980000  1599.000000     0.000625  1793.002861     0.000000 
  73.000000  1513.000000     0.000661  1735.316465     0.000000 
  73.020000  1422.000000     0.000703  1643.130871     0.000000 
  73.040000  1289.000000     0.000776  1525.721807     0.000000 
  73.060000  1176.000000     0.000850  1397.058691     0.000000 
  73.080000  1103.800000     0.000906  1269.951634     0.000000 
  73.100000  1071.000000     0.000934  1153.111717     0.000000 
  73.120000  1035.000000     0.000966  1051.245231     0.000000 
  73.140000   975.000000     0.001026   966.158641     0.000000 
  73.160000   944.500000     0.001059   897.696723     0.000000 
  73.180000   932.000000     0.001073   844.381877     0.000000 
  73.200000   887.600000     0.001127   803.948607     0.000000 
  73.220000   854.000000     0.001171   773.838626     0.000000 
  73.240000   815.000000     0.001227   751.597326     0.000000 
  73.260000   795.000000     0.001258   735.118583     0.000000 
  73.280000   758.000000     0.001319   722.740682     0.000000 
  73.300000   716.900000     0.001395   713.234634     0.000000 
  73.320000   682.800000     0.001465   705.734866     0.000000 
  73.340000   648.600000     0.001542   699.652193     0.000000 
  73.360000   625.900000     0.001598   694.593179     0.000000 
  73.380000   593.000000     0.001686   690.296155     0.000000 
  73.400000   587.000000     0.001704   686.585236     0.000000 
  73.420000   601.000000     0.001664   683.339438     0.000000 
  73.440000   572.000000     0.001748   680.472839     0.000000 
  73.460000   569.000000     0.001757   677.922173     0.000000 
  73.480000   571.000000     0.001751   675.639171     0.000000 
  73.500000   569.000000     0.001757   673.563478     0.000000 
  73.520000   572.000000     0.001748   671.709397     0.000000 
  73.540000   575.800000     0.001737   670.028999     0.000000 
  73.560000   569.000000     0.001757   669.804934     0.000000 
  73.580000   566.700000     0.001765   668.430641     0.000000 
  73.600000   564.400000     0.001772   667.006613     0.000000 
  73.620000   571.200000     0.001751   665.861242     0.000000 
  73.640000   573.500000     0.001744   664.810014     0.000000 
  73.660000   569.000000     0.001757   665.126609     0.000000 
  73.680000   562.100000     0.001779   664.258807     0.000000 
  73.700000   564.400000     0.001772   663.461519     0.000000 
  73.720000   569.000000     0.001757   662.728316     0.000000 
  73.740000   569.000000     0.001757   662.187231     0.000000 
  73.760000   562.100000     0.001779   661.567873     0.000000 
  73.780000   567.000000     0.001764   660.997639     0.000000 
  73.800000   571.200000     0.001751   660.472652     0.000000 
  73.820000   578.100000     0.001730   659.989475     0.000000 
  73.840000   573.500000     0.001744   659.545058     0.000000 
  73.860000   562.100000     0.001779   658.282651     0.000000 
  73.880000   564.400000     0.001772   657.918786     0.000000 
  73.900000   571.200000     0.001751   657.722314     0.000000 
  73.920000   575.800000     0.001737   657.564148     0.000000 
  73.940000   575.800000     0.001737   657.280926     0.000000 
  73.960000   569.000000     0.001757   657.036055     0.000000 
  73.980000   564.400000     0.001772   656.816203     0.000000 
  74.000000   571.200000     0.001751   656.620233     0.000000 
  74.020000   571.200000     0.001751   657.642843     0.000000 
  74.040000   579.000000     0.001727   657.509328     0.000000 
  74.060000   568.000000     0.001761   657.397597     0.000000 
  74.080000   562.100000     0.001779   657.307135     0.000000 
  74.100000   569.000000     0.001757   657.237588     0.000000 
  74.120000   575.000000     0.001739   658.508710     0.000000 
  74.140000   578.100000     0.001730   658.465258     0.000000 
  74.160000   575.000000     0.001739   658.478757     0.000000 
  74.180000   571.200000     0.001751   658.514934     0.000000 
  74.200000   569.000000     0.001757   658.148488     0.000000 
  74.220000   566.700000     0.001765   658.242532     0.000000 
  74.240000   573.500000     0.001744   658.369768     0.000000 
  74.260000   579.000000     0.001727   658.538720     0.000000 
  74.280000   572.000000     0.001748   658.364936     0.000000 
  74.300000   571.200000     0.001751   658.664200     0.000000 
  74.320000   566.700000     0.001765   659.055187     0.000000 
  74.340000   566.700000     0.001765   659.560503     0.000000 
  74.360000   575.800000     0.001737   660.200692     0.000000 
  74.380000   575.800000     0.001737   660.866565     0.000000 
  74.400000   569.000000     0.001757   661.802192     0.000000 
  74.420000   564.400000     0.001772   663.662531     0.000000 
  74.440000   562.100000     0.001779   664.800808     0.000000 
  74.460000   559.000000     0.001789   665.913041     0.000000 
  74.480000   564.400000     0.001772   666.862030     0.000000 
  74.500000   566.700000     0.001765   667.496590     0.000000 
  74.520000   569.000000     0.001757   667.225578     0.000000 
  74.540000   569.000000     0.001757   667.084931     0.000000 
  74.560000   569.000000     0.001757   666.700827     0.000000 
  74.580000   566.400000     0.001766   666.226604     0.000000 
  74.600000   566.400000     0.001766   665.205128     0.000000 
  74.620000   574.100000     0.001742   664.875890     0.000000 
  74.640000   576.700000     0.001734   664.694896     0.000000 
  74.660000   570.000000     0.001754   664.676953     0.000000 
  74.680000   566.000000     0.001767   664.818638     0.000000 
  74.700000   569.000000     0.001757   665.105561     0.000000 
  74.720000   571.600000     0.001749   665.177600     0.000000 
  74.740000   579.000000     0.001727   665.702989     0.000000 
  74.760000   574.100000     0.001742   666.321261     0.000000 
  74.780000   569.000000     0.001757   667.022906     0.000000 
  74.800000   569.000000     0.001757   667.770874     0.000000 
  74.820000   569.000000     0.001757   668.634483     0.000000 
  74.840000   571.600000     0.001749   669.587934     0.000000 
  74.860000   579.300000     0.001726   670.250220     0.000000 
  74.880000   576.700000     0.001734   671.435997     0.000000 
  74.900000   579.000000     0.001727   672.770047     0.000000 
  74.920000   571.600000     0.001749   674.280516     0.000000 
  74.940000   576.700000     0.001734   675.995380     0.000000 
  74.960000   581.900000     0.001719   677.937524     0.000000 
  74.980000   581.900000     0.001719   680.118810     0.000000 
  75.000000   584.500000     0.001711   682.533367     0.000000 
  75.020000   592.200000     0.001689   685.149606     0.000000 
  75.040000   584.500000     0.001711   687.939789     0.000000 
  75.060000   587.100000     0.001703   690.725818     0.000000 
  75.080000   594.800000     0.001681   693.440238     0.000000 
  75.100000   600.000000     0.001667   696.047069     0.000000 
  75.120000   605.200000     0.001652   698.634044     0.000000 
  75.140000   607.800000     0.001645   701.382081     0.000000 
  75.160000   618.100000     0.001618   704.493291     0.000000 
  75.180000   633.000000     0.001580   708.155298     0.000000 
  75.200000   638.800000     0.001565   712.553912     0.000000 
  75.220000   654.000000     0.001529   717.970153     0.000000 
  75.240000   682.800000     0.001465   724.633171     0.000000 
  75.260000   678.600000     0.001474   733.130376     0.000000 
  75.280000   708.000000     0.001412   744.318642     0.000000 
  75.300000   753.000000     0.001328   759.535395     0.000000 
  75.320000   819.300000     0.001221   780.765653     0.000000 
  75.340000   902.100000     0.001109   810.692852     0.000000 
  75.360000  1021.000000     0.000979   852.891537     0.000000 
  75.380000  1223.000000     0.000818   911.160411     0.000000 
  75.400000  1429.000000     0.000700   989.118025     0.000000 
  75.420000  1667.000000     0.000600  1089.171607     0.000000 
  75.440000  2011.000000     0.000497  1211.302820     0.000000 
  75.460000  2234.500000     0.000448  1351.665646     0.000000 
  75.480000  2333.800000     0.000428  1500.889145     0.000000 
  75.500000  2284.100000     0.000438  1641.813733     0.000000 
  75.520000  2126.900000     0.000470  1750.214668     0.000000 
  75.540000  1820.700000     0.000549  1798.919261     0.000000 
  75.560000  1597.200000     0.000626  1773.448363     0.000000 
  75.580000  1497.900000     0.000668  1682.452697     0.000000 
  75.600000  1365.500000     0.000732  1551.075711     0.000000 
  75.620000  1340.700000     0.000746  1405.763458     0.000000 
  75.640000  1382.100000     0.000724  1265.572317     0.000000 
  75.660000  1456.600000     0.000687  1141.788346     0.000000 
  75.680000  1522.800000     0.000657  1039.651365     0.000000 
  75.700000  1555.900000     0.000643   959.781906     0.000000 
  75.720000  1497.900000     0.000668   900.789056     0.000000 
  75.740000  1365.500000     0.000732   859.095789     0.000000 
  75.760000  1233.100000     0.000811   830.857154     0.000000 
  75.780000  1125.500000     0.000888   812.493857     0.000000 
  75.800000   976.600000     0.001024   801.117114     0.000000 
  75.820000   893.800000     0.001119   794.525126     0.000000 
  75.840000   802.800000     0.001246   791.297007     0.000000 
  75.860000   728.300000     0.001373   790.525927     0.000000 
  75.880000   711.000000     0.001406   791.685262     0.000000 
  75.900000   681.000000     0.001468   794.241913     0.000000 
  75.920000   678.600000     0.001474   798.592902     0.000000 
  75.940000   678.600000     0.001474   804.471029     0.000000 
  75.960000   670.300000     0.001492   811.846398     0.000000 
  75.980000   678.600000     0.001474   821.038730     0.000000 
  76.000000   681.000000     0.001468   832.085424     0.000000 
  76.020000   697.900000     0.001433   845.207268     0.000000 
  76.040000   697.900000     0.001433   861.452863     0.000000 
  76.060000   745.500000     0.001341   881.325953     0.000000 
  76.080000   769.000000     0.001300   906.138966     0.000000 
  76.100000   856.600000     0.001167   937.986189     0.000000 
  76.120000  1031.000000     0.000970   980.110530     0.000000 
  76.140000  1180.000000     0.000847  1037.343952     0.000000 
  76.160000  1389.000000     0.000720  1116.351528     0.000000 
  76.180000  1659.000000     0.000603  1225.671756     0.000000 
  76.200000  1980.000000     0.000505  1375.182554     0.000000 
  76.220000  2166.000000     0.000462  1574.930814     0.000000 
  76.240000  2471.000000     0.000405  1833.313308     0.000000 
  76.260000  2601.400000     0.000384  2154.349684     0.000000 
  76.280000  2760.000000     0.000362  2534.400044     0.000000 
  76.300000  2854.000000     0.000350  2957.362127     0.000000 
  76.320000  2900.000000     0.000345  3387.060082     0.000000 
  76.340000  2950.300000     0.000339  3771.300628     0.000000 
  76.360000  3001.000000     0.000333  4059.896448     0.000000 
  76.380000  3124.800000     0.000320  4234.301296     0.000000 
  76.400000  3315.200000     0.000302  4307.679791     0.000000 
  76.420000  3442.100000     0.000291  4291.475625     0.000000 
  76.440000  3505.500000     0.000285  4175.273528     0.000000 
  76.460000  3473.800000     0.000288  3947.480124     0.000000 
  76.480000  3294.000000     0.000304  3627.891550     0.000000 
  76.500000  3188.300000     0.000314  3265.816690     0.000000 
  76.520000  3010.000000     0.000332  2911.301153     0.000000 
  76.540000  2843.000000     0.000352  2599.200755     0.000000 
  76.560000  2807.600000     0.000356  2351.419034     0.000000 
  76.580000  2871.000000     0.000348  2181.569348     0.000000 
  76.600000  3230.000000     0.000310  2096.237717     0.000000 
  76.620000  3575.000000     0.000280  2095.633093     0.000000 
  76.640000  3933.800000     0.000254  2174.572151     0.000000 
  76.660000  4187.600000     0.000239  2323.675133     0.000000 
  76.680000  4346.200000     0.000230  2531.792897     0.000000 
  76.700000  4426.000000     0.000226  2789.028530     0.000000 
  76.720000  4330.300000     0.000231  3086.194037     0.000000 
  76.740000  4187.600000     0.000239  3407.486768     0.000000 
  76.760000  4093.000000     0.000244  3720.535360     0.000000 
  76.780000  4107.000000     0.000243  3978.863403     0.000000 
  76.800000  4140.000000     0.000242  4146.830007     0.000000 
  76.820000  4204.000000     0.000238  4221.381676     0.000000 
  76.840000  4333.000000     0.000231  4215.380776     0.000000 
  76.860000  4510.000000     0.000222  4124.440730     0.000000 
  76.880000  4536.600000     0.000220  3926.198160     0.000000 
  76.900000  4452.000000     0.000225  3616.192606     0.000000 
  76.920000  4300.000000     0.000233  3232.046474     0.000000 
  76.940000  4092.400000     0.000244  2833.808771     0.000000 
  76.960000  3870.300000     0.000258  2472.868932     0.000000 
  76.980000  3791.000000     0.000264  2180.037413     0.000000 
  77.000000  3742.000000     0.000267  1970.309042     0.000000 
  77.020000  3805.000000     0.000263  1847.213838     0.000000 
  77.040000  3933.800000     0.000254  1806.088213     0.000000 
  77.060000  4042.000000     0.000247  1835.355077     0.000000 
  77.080000  4029.000000     0.000248  1916.433679     0.000000 
  77.100000  3838.600000     0.000261  2022.101834     0.000000 
  77.120000  3690.000000     0.000271  2114.750964     0.000000 
  77.140000  3244.000000     0.000308  2151.526902     0.000000 
  77.160000  2800.000000     0.000357  2103.619477     0.000000 
  77.180000  2400.000000     0.000417  1975.616000     0.000000 
  77.200000  2189.000000     0.000457  1798.967962     0.000000 
  77.220000  1951.000000     0.000513  1608.456332     0.000000 
  77.240000  1800.000000     0.000556  1428.399981     0.000000 
  77.260000  1778.000000     0.000562  1271.861455     0.000000 
  77.280000  1776.600000     0.000563  1143.844521     0.000000 
  77.300000  1741.000000     0.000574  1044.110004     0.000000 
  77.320000  1665.500000     0.000600   969.277894     0.000000 
  77.340000  1593.000000     0.000628   914.512039     0.000000 
  77.360000  1475.200000     0.000678   874.807828     0.000000 
  77.380000  1316.600000     0.000760   845.804187     0.000000 
  77.400000  1157.900000     0.000864   824.131729     0.000000 
  77.420000  1031.000000     0.000970   807.417565     0.000000 
  77.440000   935.900000     0.001068   794.103535     0.000000 
  77.460000   888.300000     0.001126   783.235195     0.000000 
  77.480000   840.700000     0.001189   774.241815     0.000000 
  77.500000   809.000000     0.001236   766.814387     0.000000 
  77.520000   766.900000     0.001304   760.818884     0.000000 
  77.540000   750.300000     0.001333   756.250135     0.000000 
  77.560000   744.800000     0.001343   753.200603     0.000000 
  77.580000   728.300000     0.001373   751.825228     0.000000 
  77.600000   733.800000     0.001363   752.290665     0.000000 
  77.620000   729.700000     0.001370   754.706335     0.000000 
  77.640000   733.800000     0.001363   759.425465     0.000000 
  77.660000   733.800000     0.001363   765.395753     0.000000 
  77.680000   728.300000     0.001373   772.301063     0.000000 
  77.700000   717.200000     0.001394   779.247634     0.000000 
  77.720000   722.800000     0.001384   783.893463     0.000000 
  77.740000   733.800000     0.001363   785.585333     0.000000 
  77.760000   739.300000     0.001353   784.943041     0.000000 
  77.780000   717.200000     0.001394   783.819625     0.000000 
  77.800000   722.800000     0.001384   783.923252     0.000000 
  77.820000   722.800000     0.001384   785.928237     0.000000 
  77.840000   722.800000     0.001384   789.211241     0.000000 
  77.860000   706.200000     0.001416   791.827511     0.000000 
  77.880000   706.200000     0.001416   791.073300     0.000000 
  77.900000   706.200000     0.001416   785.149980     0.000000 
  77.920000   728.300000     0.001373   774.636901     0.000000 
  77.940000   720.000000     0.001389   761.824458     0.000000 
  77.960000   728.300000     0.001373   748.987751     0.000000 
  77.980000   711.700000     0.001405   737.580818     0.000000 
  78.000000   700.700000     0.001427   728.337286     0.000000 
  78.020000   717.200000     0.001394   721.525674     0.000000 
  78.040000   717.200000     0.001394   717.179936     0.000000 
  78.060000   728.300000     0.001373   715.258358     0.000000 
  78.080000   706.200000     0.001416   715.768483     0.000000 
  78.100000   695.200000     0.001438   718.842463     0.000000 
  78.120000   695.200000     0.001438   724.747121     0.000000 
  78.140000   700.700000     0.001427   733.816530     0.000000 
  78.160000   722.800000     0.001384   746.313403     0.000000 
  78.180000   706.200000     0.001416   762.342689     0.000000 
  78.200000   695.200000     0.001438   780.965270     0.000000 
  78.220000   700.700000     0.001427   800.619516     0.000000 
  78.240000   717.200000     0.001394   818.561342     0.000000 
  78.260000   722.800000     0.001384   832.030478     0.000000 
  78.280000   711.700000     0.001405   839.547769     0.000000 
  78.300000   722.800000     0.001384   840.675682     0.000000 
  78.320000   711.700000     0.001405   835.474454     0.000000 
  78.340000   706.200000     0.001416   825.326322     0.000000 
  78.360000   700.700000     0.001427   812.878301     0.000000 
  78.380000   689.000000     0.001451   800.243473     0.000000 
  78.400000   696.000000     0.001437   787.928296     0.000000 
  78.420000   697.900000     0.001433   774.962533     0.000000 
  78.440000   700.700000     0.001427   762.873528     0.000000 
  78.460000   695.200000     0.001438   751.969244     0.000000 
  78.480000   684.100000     0.001462   743.140887     0.000000 
  78.500000   695.200000     0.001438   736.709739     0.000000 
  78.520000   700.700000     0.001427   732.521500     0.000000 
  78.540000   700.700000     0.001427   730.251418     0.000000 
  78.560000   700.700000     0.001427   729.729400     0.000000 
  78.580000   689.700000     0.001450   731.096123     0.000000 
  78.600000   705.500000     0.001417   734.769837     0.000000 
  78.620000   713.100000     0.001402   741.717460     0.000000 
  78.640000   724.500000     0.001380   752.556570     0.000000 
  78.660000   747.200000     0.001338   769.286689     0.000000 
  78.680000   777.600000     0.001286   794.357081     0.000000 
  78.700000   811.700000     0.001232   830.826907     0.000000 
  78.720000   861.000000     0.001161   881.952275     0.000000 
  78.740000   921.700000     0.001085   950.362327     0.000000 
  78.760000   963.400000     0.001038  1036.774810     0.000000 
  78.780000  1031.700000     0.000969  1138.701966     0.000000 
  78.800000  1069.700000     0.000935  1246.484145     0.000000 
  78.820000  1084.800000     0.000922  1344.132231     0.000000 
  78.840000  1077.200000     0.000928  1407.755181     0.000000 
  78.860000  1050.700000     0.000952  1414.594686     0.000000 
  78.880000  1016.600000     0.000984  1360.685105     0.000000 
  78.900000   952.100000     0.001050  1266.090280     0.000000 
  78.920000   880.000000     0.001136  1158.178655     0.000000 
  78.940000   864.800000     0.001156  1056.557432     0.000000 
  78.960000   852.000000     0.001174   970.957628     0.000000 
  78.980000   857.200000     0.001167   904.299749     0.000000 
  79.000000   861.000000     0.001161   855.363326     0.000000 
  79.020000   868.600000     0.001151   820.514160     0.000000 
  79.040000   880.000000     0.001136   795.230494     0.000000 
  79.060000   876.200000     0.001141   775.771935     0.000000 
  79.080000   864.800000     0.001156   760.122459     0.000000 
  79.100000   826.900000     0.001209   747.518896     0.000000 
  79.120000   804.100000     0.001244   737.612703     0.000000 
  79.140000   751.000000     0.001332   730.126279     0.000000 
  79.160000   747.200000     0.001338   723.526007     0.000000 
  79.180000   709.300000     0.001410   720.211739     0.000000 
  79.200000   690.300000     0.001449   718.752367     0.000000 
  79.220000   690.300000     0.001449   719.163224     0.000000 
  79.240000   686.600000     0.001456   721.713735     0.000000 
  79.260000   697.900000     0.001433   725.794353     0.000000 
  79.280000   721.000000     0.001387   735.261034     0.000000 
  79.300000   751.000000     0.001332   749.714068     0.000000 
  79.320000   791.000000     0.001264   770.764085     0.000000 
  79.340000   819.300000     0.001221   799.864497     0.000000 
  79.360000   858.000000     0.001166   837.159657     0.000000 
  79.380000   883.800000     0.001131   881.095107     0.000000 
  79.400000   899.000000     0.001112   926.781703     0.000000 
  79.420000   902.800000     0.001108   964.368352     0.000000 
  79.440000   891.400000     0.001122   981.197691     0.000000 
  79.460000   861.000000     0.001161   968.842964     0.000000 
  79.480000   815.500000     0.001226   933.457672     0.000000 
  79.500000   792.800000     0.001261   888.357453     0.000000 
  79.520000   757.000000     0.001321   843.557215     0.000000 
  79.540000   735.900000     0.001359   804.852598     0.000000 
  79.560000   735.900000     0.001359   773.115943     0.000000 
  79.580000   735.900000     0.001359   750.432397     0.000000 
  79.600000   754.800000     0.001325   734.904858     0.000000 
  79.620000   762.400000     0.001312   724.458302     0.000000 
  79.640000   762.400000     0.001312   717.948063     0.000000 
  79.660000   754.800000     0.001325   713.049988     0.000000 
  79.680000   739.700000     0.001352   711.300409     0.000000 
  79.700000   713.100000     0.001402   711.011317     0.000000 
  79.720000   675.200000     0.001481   711.917789     0.000000 
  79.740000   660.000000     0.001515   713.922836     0.000000 
  79.760000   648.600000     0.001542   717.053931     0.000000 
  79.780000   692.000000     0.001445   721.452882     0.000000 
  79.800000   724.000000     0.001381   727.404169     0.000000 
  79.820000   776.000000     0.001289   735.410867     0.000000 
  79.840000   862.100000     0.001160   746.328650     0.000000 
  79.860000   972.400000     0.001028   761.556085     0.000000 
  79.880000  1124.100000     0.000890   783.244875     0.000000 
  79.900000  1289.700000     0.000775   813.654874     0.000000 
  79.920000  1517.200000     0.000659   858.366221     0.000000 
  79.940000  1710.300000     0.000585   920.620997     0.000000 
  79.960000  1841.400000     0.000543  1004.290576     0.000000 
  79.980000  1917.200000     0.000522  1110.822066     0.000000 
  80.000000  1944.800000     0.000514  1236.051617     0.000000 
  80.020000  1937.900000     0.000516  1365.385603     0.000000 
  80.040000  1947.900000     0.000513  1473.106045     0.000000 
  80.060000  1958.600000     0.000511  1535.749607     0.000000 
  80.080000  1979.300000     0.000505  1546.969455     0.000000 
  80.100000  1965.500000     0.000509  1507.938233     0.000000 
  80.120000  1924.100000     0.000520  1420.713279     0.000000 
  80.140000  1827.600000     0.000547  1300.026632     0.000000 
  80.160000  1737.900000     0.000575  1171.876998     0.000000 
  80.180000  1655.200000     0.000604  1056.689824     0.000000 
  80.200000  1586.200000     0.000630   963.225505     0.000000 
  80.220000  1510.300000     0.000662   892.323392     0.000000 
  80.240000  1469.000000     0.000681   841.132004     0.000000 
  80.260000  1441.400000     0.000694   805.562819     0.000000 
  80.280000  1406.900000     0.000711   781.595849     0.000000 
  80.300000  1379.300000     0.000725   765.955853     0.000000 
  80.320000  1365.500000     0.000732   756.379476     0.000000 
  80.340000  1301.000000     0.000769   751.617841     0.000000 
  80.360000  1216.600000     0.000822   751.295787     0.000000 
  80.380000  1144.100000     0.000874   755.695459     0.000000 
  80.400000  1071.700000     0.000933   765.470411     0.000000 
  80.420000   965.500000     0.001036   781.223311     0.000000 
  80.440000   903.400000     0.001107   803.110533     0.000000 
  80.460000   861.700000     0.001160   829.687433     0.000000 
  80.480000   834.000000     0.001199   856.479989     0.000000 
  80.500000   806.900000     0.001239   874.810345     0.000000 
  80.520000   796.600000     0.001255   875.658937     0.000000 
  80.540000   782.100000     0.001279   858.488228     0.000000 
  80.560000   782.100000     0.001279   831.849152     0.000000 
  80.580000   772.400000     0.001295   804.906357     0.000000 
  80.600000   786.200000     0.001272   782.535205     0.000000 
  80.620000   731.400000     0.001367   766.411519     0.000000 
  80.640000   738.600000     0.001354   756.561639     0.000000 
  80.660000   740.000000     0.001351   752.278551     0.000000 
  80.680000   767.600000     0.001303   752.575321     0.000000 
  80.700000   782.100000     0.001279   756.417208     0.000000 
  80.720000   803.800000     0.001244   763.030515     0.000000 
  80.740000   826.000000     0.001211   772.563983     0.000000 
  80.760000   872.000000     0.001147   786.568038     0.000000 
  80.780000   926.900000     0.001079   807.692798     0.000000 
  80.800000  1039.000000     0.000962   838.879207     0.000000 
  80.820000  1122.400000     0.000891   882.689339     0.000000 
  80.840000  1188.000000     0.000842   940.264956     0.000000 
  80.860000  1310.700000     0.000763  1009.296736     0.000000 
  80.880000  1426.600000     0.000701  1080.390000     0.000000 
  80.900000  1509.700000     0.000662  1136.672212     0.000000 
  80.920000  1577.900000     0.000634  1167.818264     0.000000 
  80.940000  1570.300000     0.000637  1185.376731     0.000000 
  80.960000  1562.800000     0.000640  1211.229023     0.000000 
  80.980000  1509.700000     0.000662  1256.045739     0.000000 
  81.000000  1441.400000     0.000694  1309.029833     0.000000 
  81.020000  1354.100000     0.000738  1337.413226     0.000000 
  81.040000  1289.000000     0.000776  1307.813952     0.000000 
  81.060000  1238.300000     0.000808  1223.126729     0.000000 
  81.080000  1221.400000     0.000819  1116.922135     0.000000 
  81.100000  1213.800000     0.000824  1017.674047     0.000000 
  81.120000  1221.400000     0.000819   937.285181     0.000000 
  81.140000  1206.200000     0.000829   877.437770     0.000000 
  81.160000  1187.600000     0.000842   835.568912     0.000000 
  81.180000  1198.600000     0.000834   807.774266     0.000000 
  81.200000  1168.300000     0.000856   790.259058     0.000000 
  81.220000  1160.700000     0.000862   780.028191     0.000000 
  81.240000  1099.000000     0.000910   775.095287     0.000000 
  81.260000  1079.000000     0.000927   774.445892     0.000000 
  81.280000  1050.000000     0.000952   777.784722     0.000000 
  81.300000  1050.000000     0.000952   785.640419     0.000000 
  81.320000  1050.000000     0.000952   799.267910     0.000000 
  81.340000  1066.000000     0.000938   820.597988     0.000000 
  81.360000  1093.400000     0.000915   852.162509     0.000000 
  81.380000  1142.000000     0.000876   896.529731     0.000000 
  81.400000  1209.300000     0.000827   955.131873     0.000000 
  81.420000  1260.000000     0.000794  1025.689752     0.000000 
  81.440000  1325.200000     0.000755  1096.489488     0.000000 
  81.460000  1383.100000     0.000723  1148.488275     0.000000 
  81.480000  1419.000000     0.000705  1172.164716     0.000000 
  81.500000  1441.000000     0.000694  1186.777119     0.000000 
  81.520000  1470.000000     0.000680  1220.882797     0.000000 
  81.540000  1471.000000     0.000680  1290.292821     0.000000 
  81.560000  1527.900000     0.000654  1391.540932     0.000000 
  81.580000  1582.000000     0.000632  1497.587355     0.000000 
  81.600000  1658.300000     0.000603  1570.288235     0.000000 
  81.620000  1781.400000     0.000561  1599.801494     0.000000 
  81.640000  1863.000000     0.000537  1604.363920     0.000000 
  81.660000  1969.700000     0.000508  1595.415792     0.000000 
  81.680000  2063.800000     0.000485  1577.334610     0.000000 
  81.700000  2092.800000     0.000478  1545.941685     0.000000 
  81.720000  2071.000000     0.000483  1486.053302     0.000000 
  81.740000  2041.000000     0.000490  1394.139592     0.000000 
  81.760000  1955.200000     0.000511  1285.105396     0.000000 
  81.780000  1839.300000     0.000544  1172.580055     0.000000 
  81.800000  1709.000000     0.000585  1068.494159     0.000000 
  81.820000  1593.100000     0.000628   983.884482     0.000000 
  81.840000  1505.000000     0.000664   922.618051     0.000000 
  81.860000  1448.300000     0.000690   883.014145     0.000000 
  81.880000  1412.100000     0.000708   861.927443     0.000000 
  81.900000  1393.000000     0.000718   856.535251     0.000000 
  81.920000  1383.100000     0.000723   864.035534     0.000000 
  81.940000  1348.000000     0.000742   879.274856     0.000000 
  81.960000  1339.700000     0.000746   891.218463     0.000000 
  81.980000  1297.000000     0.000771   888.495322     0.000000 
  82.000000  1261.000000     0.000793   872.834378     0.000000 
  82.020000  1209.300000     0.000827   857.883322     0.000000 
  82.040000  1151.400000     0.000869   853.922488     0.000000 
  82.060000  1093.400000     0.000915   865.364121     0.000000 
  82.080000  1021.000000     0.000979   884.257769     0.000000 
  82.100000   955.900000     0.001046   897.036964     0.000000 
  82.120000   912.400000     0.001096   885.707568     0.000000 
  82.140000   876.200000     0.001141   851.486793     0.000000 
  82.160000   840.000000     0.001190   811.438900     0.000000 
  82.180000   802.000000     0.001247   777.084860     0.000000 
  82.200000   783.000000     0.001277   751.105293     0.000000 
  82.220000   774.800000     0.001291   732.456298     0.000000 
  82.240000   754.800000     0.001325   719.290870     0.000000 
  82.260000   748.100000     0.001337   709.920555     0.000000 
  82.280000   741.500000     0.001349   703.071786     0.000000 
  82.300000   728.300000     0.001373   697.887633     0.000000 
  82.320000   711.700000     0.001405   693.830892     0.000000 
  82.340000   701.800000     0.001425   690.572952     0.000000 
  82.360000   701.800000     0.001425   687.908887     0.000000 
  82.380000   695.200000     0.001438   685.705182     0.000000 
  82.400000   678.600000     0.001474   683.871222     0.000000 
  82.420000   672.000000     0.001488   682.344432     0.000000 
  82.440000   665.400000     0.001503   681.082530     0.000000 
  82.460000   662.100000     0.001510   680.059780     0.000000 
  82.480000   652.100000     0.001534   678.889560     0.000000 
  82.500000   642.200000     0.001557   678.339006     0.000000 
  82.520000   648.800000     0.001541   678.057118     0.000000 
  82.540000   638.900000     0.001565   677.754318     0.000000 
  82.560000   632.300000     0.001582   678.265955     0.000000 
  82.580000   625.700000     0.001598   679.409787     0.000000 
  82.600000   633.000000     0.001580   681.405825     0.000000 
  82.620000   629.000000     0.001590   684.316519     0.000000 
  82.640000   622.300000     0.001607   687.388733     0.000000 
  82.660000   619.000000     0.001616   688.532019     0.000000 
  82.680000   625.700000     0.001598   686.548395     0.000000 
  82.700000   619.000000     0.001616   683.180896     0.000000 
  82.720000   619.000000     0.001616   680.331348     0.000000 
  82.740000   615.700000     0.001624   678.553542     0.000000 
  82.760000   619.000000     0.001616   677.805081     0.000000 
  82.780000   625.700000     0.001598   678.012740     0.000000 
  82.800000   622.300000     0.001607   679.239671     0.000000 
  82.820000   615.700000     0.001624   681.712023     0.000000 
  82.840000   612.400000     0.001633   685.711412     0.000000 
  82.860000   615.700000     0.001624   691.002523     0.000000 
  82.880000   619.000000     0.001616   695.317770     0.000000 
  82.900000   609.100000     0.001642   695.241441     0.000000 
  82.920000   609.100000     0.001642   690.569403     0.000000 
  82.940000   619.000000     0.001616   684.951822     0.000000 
  82.960000   622.300000     0.001607   680.660290     0.000000 
  82.980000   622.300000     0.001607   677.695579     0.000000 
  83.000000   615.700000     0.001624   675.823011     0.000000 
  83.020000   609.100000     0.001642   674.711202     0.000000 
  83.040000   617.000000     0.001621   674.263490     0.000000 
  83.060000   605.800000     0.001651   674.109246     0.000000 
  83.080000   602.500000     0.001660   674.330474     0.000000 
  83.100000   609.100000     0.001642   674.943519     0.000000 
  83.120000   605.800000     0.001651   676.038267     0.000000 
  83.140000   608.000000     0.001645   677.788399     0.000000 
  83.160000   612.400000     0.001633   680.463071     0.000000 
  83.180000   619.000000     0.001616   684.413223     0.000000 
  83.200000   619.000000     0.001616   689.704384     0.000000 
  83.220000   612.400000     0.001633   696.724624     0.000000 
  83.240000   605.800000     0.001651   703.613242     0.000000 
  83.260000   615.700000     0.001624   707.117600     0.000000 
  83.280000   606.000000     0.001650   705.997570     0.000000 
  83.300000   604.000000     0.001656   702.668324     0.000000 
  83.320000   609.100000     0.001642   700.628872     0.000000 
  83.340000   612.400000     0.001633   699.042027     0.000000 
  83.360000   604.000000     0.001656   696.081287     0.000000 
  83.380000   590.000000     0.001695   691.556852     0.000000 
  83.400000   599.200000     0.001669   686.988945     0.000000 
  83.420000   612.400000     0.001633   683.417810     0.000000 
  83.440000   605.800000     0.001651   681.016690     0.000000 
  83.460000   599.200000     0.001669   679.630624     0.000000 
  83.480000   599.200000     0.001669   679.080188     0.000000 
  83.500000   609.100000     0.001642   679.247086     0.000000 
  83.520000   609.100000     0.001642   680.078240     0.000000 
  83.540000   599.200000     0.001669   682.077995     0.000000 
  83.560000   592.600000     0.001687   684.075408     0.000000 
  83.580000   592.600000     0.001687   686.166010     0.000000 
  83.600000   595.900000     0.001678   687.478837     0.000000 
  83.620000   605.800000     0.001651   687.387121     0.000000 
  83.640000   595.900000     0.001678   686.098207     0.000000 
  83.660000   592.600000     0.001687   685.044209     0.000000 
  83.680000   592.000000     0.001689   684.465335     0.000000 
  83.700000   599.200000     0.001669   684.487843     0.000000 
  83.720000   605.800000     0.001651   685.766210     0.000000 
  83.740000   602.500000     0.001660   686.877043     0.000000 
  83.760000   599.000000     0.001669   687.869293     0.000000 
  83.780000   589.200000     0.001697   689.338929     0.000000 
  83.800000   592.600000     0.001687   690.379097     0.000000 
  83.820000   588.000000     0.001701   691.365184     0.000000 
  83.840000   598.000000     0.001672   692.557666     0.000000 
  83.860000   599.200000     0.001669   693.757559     0.000000 
  83.880000   595.900000     0.001678   695.639636     0.000000 
  83.900000   589.200000     0.001697   697.810112     0.000000 
  83.920000   589.200000     0.001697   700.553458     0.000000 
  83.940000   592.600000     0.001687   703.766544     0.000000 
  83.960000   595.900000     0.001678   707.562142     0.000000 
  83.980000   599.200000     0.001669   711.878957     0.000000 
  84.000000   599.300000     0.001669   716.878285     0.000000 
  84.020000   595.000000     0.001681   722.694565     0.000000 
  84.040000   614.500000     0.001627   729.362426     0.000000 
  84.060000   614.500000     0.001627   737.347469     0.000000 
  84.080000   622.100000     0.001607   746.813101     0.000000 
  84.100000   644.800000     0.001551   758.141821     0.000000 
  84.120000   690.300000     0.001449   771.863684     0.000000 
  84.140000   743.400000     0.001345   788.778320     0.000000 
  84.160000   789.000000     0.001267   809.858356     0.000000 
  84.180000   902.800000     0.001108   837.369436     0.000000 
  84.200000  1054.500000     0.000948   874.276452     0.000000 
  84.220000  1175.900000     0.000850   925.549667     0.000000 
  84.240000  1380.700000     0.000724   998.579386     0.000000 
  84.260000  1631.000000     0.000613  1103.299578     0.000000 
  84.280000  1881.400000     0.000532  1251.366992     0.000000 
  84.300000  2025.500000     0.000494  1453.606755     0.000000 
  84.320000  2131.700000     0.000469  1715.349307     0.000000 
  84.340000  2154.000000     0.000464  2025.978168     0.000000 
  84.360000  2093.800000     0.000478  2339.082603     0.000000 
  84.380000  1995.200000     0.000501  2555.714781     0.000000 
  84.400000  1805.500000     0.000554  2568.397307     0.000000 
  84.420000  1615.900000     0.000619  2369.790909     0.000000 
  84.440000  1471.000000     0.000680  2061.695400     0.000000 
  84.460000  1351.000000     0.000740  1747.870217     0.000000 
  84.480000  1281.000000     0.000781  1480.067812     0.000000 
  84.500000  1259.300000     0.000794  1271.650288     0.000000 
  84.520000  1279.000000     0.000782  1118.414557     0.000000 
  84.540000  1335.200000     0.000749  1009.751815     0.000000 
  84.560000  1359.000000     0.000736   934.005555     0.000000 
  84.580000  1388.300000     0.000720   880.978292     0.000000 
  84.600000  1388.300000     0.000720   842.996331     0.000000 
  84.620000  1335.200000     0.000749   814.850353     0.000000 
  84.640000  1282.100000     0.000780   793.244108     0.000000 
  84.660000  1173.000000     0.000853   776.157362     0.000000 
  84.680000  1050.000000     0.000952   762.340439     0.000000 
  84.700000   949.000000     0.001054   750.986560     0.000000 
  84.720000   819.300000     0.001221   741.551541     0.000000 
  84.740000   766.200000     0.001305   733.624765     0.000000 
  84.760000   695.000000     0.001439   726.917409     0.000000 
  84.780000   672.000000     0.001488   721.177834     0.000000 
  84.800000   637.200000     0.001569   716.281866     0.000000 
  84.820000   611.000000     0.001637   712.065318     0.000000 
  84.840000   613.000000     0.001631   708.418480     0.000000 
  84.860000   591.700000     0.001690   706.113881     0.000000 
  84.880000   591.700000     0.001690   703.370724     0.000000 
  84.900000   576.600000     0.001734   701.034789     0.000000 
  84.920000   576.600000     0.001734   698.952444     0.000000 
  84.940000   576.600000     0.001734   697.138131     0.000000 
  84.960000   569.000000     0.001757   695.560169     0.000000 
  84.980000   569.000000     0.001757   694.192498     0.000000 
  85.000000   584.100000     0.001712   693.013725     0.000000 
  85.020000   569.000000     0.001757   692.006378     0.000000 
  85.040000   576.600000     0.001734   691.156345     0.000000 
  85.060000   561.400000     0.001781   690.452443     0.000000 
  85.080000   561.400000     0.001781   689.886106     0.000000 
  85.100000   576.600000     0.001734   689.451174     0.000000 
  85.120000   577.200000     0.001733   689.143770     0.000000 
  85.140000   577.200000     0.001733   688.962264     0.000000 
  85.160000   577.200000     0.001733   688.907334     0.000000 
  85.180000   583.400000     0.001714   689.217418     0.000000 
  85.200000   583.400000     0.001714   689.430697     0.000000 
  85.220000   589.700000     0.001696   689.792512     0.000000 
  85.240000   595.900000     0.001678   690.308031     0.000000 
  85.260000   595.900000     0.001678   690.969168     0.000000 
  85.280000   609.700000     0.001640   691.859707     0.000000 
  85.300000   603.800000     0.001656   693.053335     0.000000 
  85.320000   603.800000     0.001656   694.457218     0.000000 
  85.340000   615.500000     0.001625   696.211262     0.000000 
  85.360000   627.200000     0.001594   698.423120     0.000000 
  85.380000   639.000000     0.001565   701.260507     0.000000 
  85.400000   662.400000     0.001510   704.965659     0.000000 
  85.420000   691.700000     0.001446   709.956420     0.000000 
  85.440000   744.500000     0.001343   716.755612     0.000000 
  85.460000   803.100000     0.001245   726.063733     0.000000 
  85.480000   844.100000     0.001185   738.707077     0.000000 
  85.500000   902.800000     0.001108   755.545509     0.000000 
  85.520000   949.700000     0.001053   777.302570     0.000000 
  85.540000   984.800000     0.001015   804.259541     0.000000 
  85.560000  1002.400000     0.000998   835.686999     0.000000 
  85.580000   996.600000     0.001003   869.218699     0.000000 
  85.600000   986.900000     0.001013   899.667957     0.000000 
  85.620000   972.000000     0.001029   922.425266     0.000000 
  85.640000   926.200000     0.001080   936.274853     0.000000 
  85.660000   885.200000     0.001130   943.102095     0.000000 
  85.680000   844.100000     0.001185   943.565971     0.000000 
  85.700000   809.000000     0.001236   934.794182     0.000000 
  85.720000   785.500000     0.001273   914.132180     0.000000 
  85.740000   779.700000     0.001283   884.111942     0.000000 
  85.760000   779.700000     0.001283   850.786653     0.000000 
  85.780000   791.400000     0.001264   819.271120     0.000000 
  85.800000   813.100000     0.001230   792.509698     0.000000 
  85.820000   814.800000     0.001227   771.310277     0.000000 
  85.840000   820.700000     0.001218   755.758363     0.000000 
  85.860000   809.000000     0.001236   744.459347     0.000000 
  85.880000   791.400000     0.001264   736.862204     0.000000 
  85.900000   773.800000     0.001292   732.116812     0.000000 
  85.920000   750.300000     0.001333   729.512123     0.000000 
  85.940000   740.000000     0.001351   728.518322     0.000000 
  85.960000   732.400000     0.001365   728.782856     0.000000 
  85.980000   726.200000     0.001377   730.099592     0.000000 
  86.000000   732.400000     0.001365   732.387867     0.000000 
  86.020000   757.200000     0.001321   735.652815     0.000000 
  86.040000   781.000000     0.001280   739.991344     0.000000 
  86.060000   853.000000     0.001172   745.606374     0.000000 
  86.080000   943.400000     0.001060   752.850927     0.000000 
  86.100000  1034.000000     0.000967   762.302194     0.000000 
  86.120000  1167.000000     0.000857   774.862031     0.000000 
  86.140000  1272.000000     0.000786   791.865508     0.000000 
  86.160000  1408.000000     0.000710   815.156492     0.000000 
  86.180000  1450.000000     0.000690   847.067986     0.000000 
  86.200000  1477.200000     0.000677   890.553841     0.000000 
  86.220000  1471.400000     0.000680   947.531972     0.000000 
  86.240000  1447.000000     0.000691  1020.140994     0.000000 
  86.260000  1323.000000     0.000756  1108.605538     0.000000 
  86.280000  1232.000000     0.000812  1210.250703     0.000000 
  86.300000  1148.300000     0.000871  1317.488765     0.000000 
  86.320000  1083.000000     0.000923  1415.512953     0.000000 
  86.340000  1020.000000     0.000980  1483.157614     0.000000 
  86.360000  1008.300000     0.000992  1502.748272     0.000000 
  86.380000  1025.900000     0.000975  1473.785880     0.000000 
  86.400000  1066.900000     0.000937  1415.625953     0.000000 
  86.420000  1119.700000     0.000893  1353.608777     0.000000 
  86.440000  1207.600000     0.000828  1307.437384     0.000000 
  86.460000  1272.000000     0.000786  1289.449284     0.000000 
  86.480000  1371.700000     0.000729  1305.647184     0.000000 
  86.500000  1459.700000     0.000685  1356.961184     0.000000 
  86.520000  1547.600000     0.000646  1439.217368     0.000000 
  86.540000  1600.300000     0.000625  1541.858599     0.000000 
  86.560000  1653.100000     0.000605  1645.902835     0.000000 
  86.580000  1670.700000     0.000599  1723.046035     0.000000 
  86.600000  1688.300000     0.000592  1744.599783     0.000000 
  86.620000  1663.400000     0.000601  1698.322831     0.000000 
  86.640000  1613.800000     0.000620  1597.124639     0.000000 
  86.660000  1533.100000     0.000652  1467.656948     0.000000 
  86.680000  1436.000000     0.000696  1333.951664     0.000000 
  86.700000  1315.900000     0.000760  1211.136146     0.000000 
  86.720000  1213.400000     0.000824  1106.805061     0.000000 
  86.740000  1166.600000     0.000857  1022.100032     0.000000 
  86.760000  1143.100000     0.000875   959.874150     0.000000 
  86.780000  1135.900000     0.000880   916.335871     0.000000 
  86.800000  1184.100000     0.000845   888.354492     0.000000 
  86.820000  1231.000000     0.000812   872.461619     0.000000 
  86.840000  1266.200000     0.000790   865.114845     0.000000 
  86.860000  1301.400000     0.000768   862.649596     0.000000 
  86.880000  1313.100000     0.000762   861.212782     0.000000 
  86.900000  1283.800000     0.000779   857.291269     0.000000 
  86.920000  1231.000000     0.000812   848.991733     0.000000 
  86.940000  1157.000000     0.000864   836.784105     0.000000 
  86.960000  1090.300000     0.000917   822.627754     0.000000 
  86.980000  1025.900000     0.000975   808.589352     0.000000 
  87.000000   961.000000     0.001041   796.204978     0.000000 
  87.020000   906.200000     0.001104   786.407499     0.000000 
  87.040000   846.000000     0.001182   779.569948     0.000000 
  87.060000   830.000000     0.001205   775.555649     0.000000 
  87.080000   800.000000     0.001250   773.757876     0.000000 
  87.100000   765.000000     0.001307   773.157894     0.000000 
  87.120000   763.400000     0.001310   772.565703     0.000000 
  87.140000   751.000000     0.001332   771.168639     0.000000 
  87.160000   738.600000     0.001354   769.023255     0.000000 
  87.180000   738.600000     0.001354   766.907995     0.000000 
  87.200000   725.000000     0.001379   765.708004     0.000000 
  87.220000   713.800000     0.001401   765.957327     0.000000 
  87.240000   701.400000     0.001426   767.689698     0.000000 
  87.260000   707.600000     0.001413   770.396570     0.000000 
  87.280000   701.400000     0.001426   773.008329     0.000000 
  87.300000   707.600000     0.001413   774.079133     0.000000 
  87.320000   682.800000     0.001465   772.410385     0.000000 
  87.340000   676.600000     0.001478   767.805866     0.000000 
  87.360000   694.000000     0.001441   761.235886     0.000000 
  87.380000   670.300000     0.001492   753.794717     0.000000 
  87.400000   664.100000     0.001506   746.619857     0.000000 
  87.420000   664.100000     0.001506   740.352172     0.000000 
  87.440000   682.800000     0.001465   735.305031     0.000000 
  87.460000   657.900000     0.001520   731.580520     0.000000 
  87.480000   688.000000     0.001453   729.135072     0.000000 
  87.500000   663.000000     0.001508   727.872319     0.000000 
  87.520000   659.000000     0.001517   727.627556     0.000000 
  87.540000   657.000000     0.001522   728.272387     0.000000 
  87.560000   651.000000     0.001536   729.699292     0.000000 
  87.580000   655.200000     0.001526   731.825434     0.000000 
  87.600000   662.100000     0.001510   734.626913     0.000000 
  87.620000   661.000000     0.001513   738.120675     0.000000 
  87.640000   671.000000     0.001490   742.368877     0.000000 
  87.660000   655.200000     0.001526   747.482778     0.000000 
  87.680000   660.000000     0.001515   753.633215     0.000000 
  87.700000   655.200000     0.001526   761.072008     0.000000 
  87.720000   669.000000     0.001495   770.169394     0.000000 
  87.740000   682.800000     0.001465   781.472850     0.000000 
  87.760000   703.400000     0.001422   795.790010     0.000000 
  87.780000   730.000000     0.001370   814.302948     0.000000 
  87.800000   779.300000     0.001283   838.620737     0.000000 
  87.820000   827.600000     0.001208   870.919163     0.000000 
  87.840000   882.800000     0.001133   913.879764     0.000000 
  87.860000   967.000000     0.001034   970.583239     0.000000 
  87.880000  1148.000000     0.000871  1044.262128     0.000000 
  87.900000  1282.000000     0.000780  1137.855199     0.000000 
  87.920000  1418.000000     0.000705  1253.264728     0.000000 
  87.940000  1600.000000     0.000625  1390.317906     0.000000 
  87.960000  1702.000000     0.000588  1545.467553     0.000000 
  87.980000  1786.200000     0.000560  1710.116201     0.000000 
  88.000000  1813.800000     0.000551  1868.652686     0.000000 
  88.020000  1800.000000     0.000556  1997.774784     0.000000 
  88.040000  1699.000000     0.000589  2070.976346     0.000000 
  88.060000  1514.000000     0.000661  2070.190112     0.000000 
  88.080000  1384.000000     0.000723  1996.768238     0.000000 
  88.100000  1275.900000     0.000784  1870.082522     0.000000 
  88.120000  1193.100000     0.000838  1715.897655     0.000000 
  88.140000  1162.000000     0.000861  1556.471558     0.000000 
  88.160000  1154.000000     0.000867  1407.177477     0.000000 
  88.180000  1180.000000     0.000847  1277.071082     0.000000 
  88.200000  1236.000000     0.000809  1170.511469     0.000000 
  88.220000  1303.400000     0.000767  1088.662361     0.000000 
  88.240000  1364.000000     0.000733  1030.648349     0.000000 
  88.260000  1420.700000     0.000704   994.429020     0.000000 
  88.280000  1434.500000     0.000697   977.375006     0.000000 
  88.300000  1420.700000     0.000704   977.028347     0.000000 
  88.320000  1379.300000     0.000725   990.618199     0.000000 
  88.340000  1332.000000     0.000751  1015.369879     0.000000 
  88.360000  1191.000000     0.000840  1048.064011     0.000000 
  88.380000  1123.000000     0.000890  1084.389952     0.000000 
  88.400000  1013.800000     0.000986  1118.984110     0.000000 
  88.420000   958.600000     0.001043  1145.212173     0.000000 
  88.440000   896.600000     0.001115  1156.695869     0.000000 
  88.460000   862.100000     0.001160  1150.989142     0.000000 
  88.480000   876.000000     0.001142  1131.080119     0.000000 
  88.500000   871.000000     0.001148  1102.735736     0.000000 
  88.520000   903.400000     0.001107  1071.560312     0.000000 
  88.540000   924.100000     0.001082  1041.143521     0.000000 
  88.560000   958.600000     0.001043  1012.783963     0.000000 
  88.580000   993.100000     0.001007   986.132189     0.000000 
  88.600000  1000.000000     0.001000   960.360091     0.000000 
  88.620000   987.000000     0.001013   935.319985     0.000000 
  88.640000   965.500000     0.001036   911.894233     0.000000 
  88.660000   937.900000     0.001066   891.468030     0.000000 
  88.680000   895.000000     0.001117   875.311760     0.000000 
  88.700000   861.000000     0.001161   864.381909     0.000000 
  88.720000   855.200000     0.001169   859.418876     0.000000 
  88.740000   882.000000     0.001134   861.082482     0.000000 
  88.760000   926.000000     0.001080   870.009855     0.000000 
  88.780000   951.000000     0.001052   886.788968     0.000000 
  88.800000  1017.000000     0.000983   911.869687     0.000000 
  88.820000  1027.000000     0.000974   945.429761     0.000000 
  88.840000  1090.000000     0.000917   987.197689     0.000000 
  88.860000  1137.900000     0.000879  1036.212232     0.000000 
  88.880000  1134.000000     0.000882  1090.489690     0.000000 
  88.900000  1150.000000     0.000870  1146.655046     0.000000 
  88.920000  1142.000000     0.000876  1199.886685     0.000000 
  88.940000  1131.000000     0.000884  1244.864541     0.000000 
  88.960000  1151.700000     0.000868  1277.946928     0.000000 
  88.980000  1151.700000     0.000868  1299.149871     0.000000 
  89.000000  1172.400000     0.000853  1311.997395     0.000000 
  89.020000  1205.000000     0.000830  1321.615761     0.000000 
  89.040000  1233.000000     0.000811  1332.958933     0.000000 
  89.060000  1306.000000     0.000766  1349.771031     0.000000 
  89.080000  1358.600000     0.000736  1373.908753     0.000000 
  89.100000  1386.000000     0.000722  1404.945315     0.000000 
  89.120000  1413.800000     0.000707  1440.142617     0.000000 
  89.140000  1413.800000     0.000707  1475.392739     0.000000 
  89.160000  1395.000000     0.000717  1505.077862     0.000000 
  89.180000  1388.000000     0.000720  1526.012663     0.000000 
  89.200000  1365.500000     0.000732  1538.613762     0.000000 
  89.220000  1337.900000     0.000747  1542.402039     0.000000 
  89.240000  1338.000000     0.000747  1535.969424     0.000000 
  89.260000  1317.200000     0.000759  1514.618555     0.000000 
  89.280000  1289.700000     0.000775  1474.707405     0.000000 
  89.300000  1262.100000     0.000792  1415.972238     0.000000 
  89.320000  1213.800000     0.000824  1343.145637     0.000000 
  89.340000  1179.300000     0.000848  1263.804707     0.000000 
  89.360000  1144.800000     0.000874  1185.234167     0.000000 
  89.380000  1117.200000     0.000895  1112.739746     0.000000 
  89.400000  1103.400000     0.000906  1049.533361     0.000000 
  89.420000  1062.100000     0.000942   997.260889     0.000000 
  89.440000  1027.600000     0.000973   956.554939     0.000000 
  89.460000  1034.500000     0.000967   927.451285     0.000000 
  89.480000  1049.000000     0.000953   909.687000     0.000000 
  89.500000  1049.000000     0.000953   902.238341     0.000000 
  89.520000  1088.000000     0.000919   906.118520     0.000000 
  89.540000  1124.100000     0.000890   920.437225     0.000000 
  89.560000  1158.600000     0.000863   944.928347     0.000000 
  89.580000  1175.000000     0.000851   979.512028     0.000000 
  89.600000  1160.000000     0.000862  1022.880079     0.000000 
  89.620000  1117.200000     0.000895  1074.022343     0.000000 
  89.640000  1096.600000     0.000912  1130.709855     0.000000 
  89.660000  1069.000000     0.000935  1189.825678     0.000000 
  89.680000  1048.300000     0.000954  1245.329258     0.000000 
  89.700000  1006.900000     0.000993  1291.215423     0.000000 
  89.720000  1006.900000     0.000993  1321.497482     0.000000 
  89.740000  1041.400000     0.000960  1333.412447     0.000000 
  89.760000  1096.600000     0.000912  1329.169367     0.000000 
  89.780000  1188.000000     0.000842  1314.845917     0.000000 
  89.800000  1317.200000     0.000759  1297.428953     0.000000 
  89.820000  1498.000000     0.000668  1282.357603     0.000000 
  89.840000  1622.000000     0.000617  1272.489191     0.000000 
  89.860000  1711.000000     0.000584  1267.950809     0.000000 
  89.880000  1806.900000     0.000553  1266.820124     0.000000 
  89.900000  1806.900000     0.000553  1265.715043     0.000000 
  89.920000  1758.600000     0.000569  1261.560965     0.000000 
  89.940000  1662.100000     0.000602  1252.798856     0.000000 
  89.960000  1496.000000     0.000668  1239.493850     0.000000 
  89.980000  1400.000000     0.000714  1222.542897     0.000000 
  90.000000  1318.000000     0.000759  1203.589695     0.000000 
  90.020000  1228.000000     0.000814  1184.929003     0.000000 
  90.040000  1206.900000     0.000829  1169.228832     0.000000 
  90.060000  1220.700000     0.000819  1158.683082     0.000000 
  90.080000  1301.000000     0.000769  1154.201513     0.000000 
  90.100000  1340.000000     0.000746  1154.985723     0.000000 
  90.120000  1421.000000     0.000704  1158.441382     0.000000 
  90.140000  1469.000000     0.000681  1160.394248     0.000000 
  90.160000  1531.000000     0.000653  1156.055339     0.000000 
  90.180000  1507.000000     0.000664  1141.464825     0.000000 
  90.200000  1462.100000     0.000684  1115.270430     0.000000 
  90.220000  1365.500000     0.000732  1079.148971     0.000000 
  90.240000  1269.000000     0.000788  1036.701427     0.000000 
  90.260000  1135.000000     0.000881   991.847926     0.000000 
  90.280000  1052.000000     0.000951   947.798765     0.000000 
  90.300000   958.600000     0.001043   906.768595     0.000000 
  90.320000   903.400000     0.001107   870.084093     0.000000 
  90.340000   862.100000     0.001160   838.788755     0.000000 
  90.360000   841.400000     0.001188   812.540137     0.000000 
  90.380000   820.700000     0.001218   790.761548     0.000000 
  90.400000   820.700000     0.001218   773.314997     0.000000 
  90.420000   832.000000     0.001202   759.567760     0.000000 
  90.440000   811.000000     0.001233   748.850694     0.000000 
  90.460000   792.000000     0.001263   740.529288     0.000000 
  90.480000   793.100000     0.001261   734.048329     0.000000 
  90.500000   765.500000     0.001306   728.952275     0.000000 
  90.520000   732.000000     0.001366   724.886775     0.000000 
  90.540000   716.000000     0.001397   721.588135     0.000000 
  90.560000   682.800000     0.001465   719.190843     0.000000 
  90.580000   662.100000     0.001510   717.510479     0.000000 
  90.600000   638.000000     0.001567   715.596481     0.000000 
  90.620000   627.600000     0.001593   713.974355     0.000000 
  90.640000   631.000000     0.001585   712.601679     0.000000 
  90.660000   609.000000     0.001642   711.449594     0.000000 
  90.680000   598.000000     0.001672   710.498938     0.000000 
  90.700000   606.900000     0.001648   709.738168     0.000000 
  90.720000   600.000000     0.001667   709.162676     0.000000 
  90.740000   600.800000     0.001664   708.775291     0.000000 
  90.760000   603.900000     0.001656   708.587914     0.000000 
  90.780000   590.000000     0.001695   708.624349     0.000000 
  90.800000   600.000000     0.001667   708.924314     0.000000 
  90.820000   602.000000     0.001661   709.548521     0.000000 
  90.840000   600.000000     0.001667   710.584365     0.000000 
  90.860000   597.800000     0.001673   712.163037     0.000000 
  90.880000   600.000000     0.001667   714.416227     0.000000 
  90.900000   600.800000     0.001664   718.106152     0.000000 
  90.920000   616.000000     0.001623   722.337819     0.000000 
  90.940000   625.100000     0.001600   727.902190     0.000000 
  90.960000   637.200000     0.001569   735.028244     0.000000 
  90.980000   664.600000     0.001505   743.907229     0.000000 
  91.000000   682.800000     0.001465   754.655050     0.000000 
  91.020000   716.100000     0.001396   767.856130     0.000000 
  91.040000   737.400000     0.001356   782.170248     0.000000 
  91.060000   767.700000     0.001303   797.808935     0.000000 
  91.080000   801.100000     0.001248   814.098442     0.000000 
  91.100000   822.300000     0.001216   830.065629     0.000000 
  91.120000   834.500000     0.001198   844.233945     0.000000 
  91.140000   840.600000     0.001190   855.026515     0.000000 
  91.160000   841.000000     0.001189   860.991708     0.000000 
  91.180000   826.000000     0.001211   861.407201     0.000000 
  91.200000   807.200000     0.001239   856.618168     0.000000 
  91.220000   798.100000     0.001253   847.952516     0.000000 
  91.240000   789.000000     0.001267   835.949638     0.000000 
  91.260000   777.000000     0.001287   823.732451     0.000000 
  91.280000   783.000000     0.001277   811.469572     0.000000 
  91.300000   786.000000     0.001272   799.698784     0.000000 
  91.320000   807.000000     0.001239   788.805504     0.000000 
  91.340000   822.000000     0.001217   778.809441     0.000000 
  91.360000   840.000000     0.001190   769.683538     0.000000 
  91.380000   861.000000     0.001161   761.384991     0.000000 
  91.400000   861.000000     0.001161   753.900765     0.000000 
  91.420000   855.000000     0.001170   747.254078     0.000000 
  91.440000   843.000000     0.001186   741.489888     0.000000 
  91.460000   813.000000     0.001230   736.653858     0.000000 
  91.480000   777.000000     0.001287   732.773964     0.000000 
  91.500000   747.000000     0.001339   729.850364     0.000000 
  91.520000   732.000000     0.001366   727.852715     0.000000 
  91.540000   711.000000     0.001406   726.720409     0.000000 
  91.560000   699.000000     0.001431   726.362080     0.000000 
  91.580000   690.000000     0.001449   726.653299     0.000000 
  91.600000   684.000000     0.001462   727.432156     0.000000 
  91.620000   684.000000     0.001462   728.494904     0.000000 
  91.640000   690.000000     0.001449   729.598622     0.000000 
  91.660000   684.000000     0.001462   730.484100     0.000000 
  91.680000   681.000000     0.001468   730.928761     0.000000 
  91.700000   675.000000     0.001481   730.814267     0.000000 
  91.720000   666.000000     0.001502   729.932587     0.000000 
  91.740000   654.000000     0.001529   728.892519     0.000000 
  91.760000   639.000000     0.001565   727.659013     0.000000 
  91.780000   627.000000     0.001595   726.414208     0.000000 
  91.800000   624.000000     0.001603   725.316244     0.000000 
  91.820000   609.000000     0.001642   724.479535     0.000000 
  91.840000   600.800000     0.001664   724.049830     0.000000 
  91.860000   597.000000     0.001675   723.952487     0.000000 
  91.880000   600.800000     0.001664   724.289323     0.000000 
  91.900000   597.800000     0.001673   725.017008     0.000000 
  91.920000   602.000000     0.001661   726.298774     0.000000 
  91.940000   603.000000     0.001658   728.089724     0.000000 
  91.960000   606.900000     0.001648   730.425140     0.000000 
  91.980000   603.900000     0.001656   733.355684     0.000000 
  92.000000   603.900000     0.001656   737.037700     0.000000 
  92.020000   617.000000     0.001621   741.399672     0.000000 
  92.040000   615.000000     0.001626   746.655806     0.000000 
  92.060000   627.600000     0.001593   752.976576     0.000000 
  92.080000   634.500000     0.001576   760.583819     0.000000 
  92.100000   655.200000     0.001526   769.802563     0.000000 
  92.120000   641.400000     0.001559   780.923265     0.000000 
  92.140000   669.000000     0.001495   794.443680     0.000000 
  92.160000   675.900000     0.001480   810.923368     0.000000 
  92.180000   709.000000     0.001410   831.018699     0.000000 
  92.200000   744.800000     0.001343   855.472008     0.000000 
  92.220000   806.900000     0.001239   885.099351     0.000000 
  92.240000   856.000000     0.001168   920.775539     0.000000 
  92.260000   937.900000     0.001066   963.390291     0.000000 
  92.280000  1052.000000     0.000951  1013.735776     0.000000 
  92.300000  1144.000000     0.000874  1072.316676     0.000000 
  92.320000  1255.200000     0.000797  1139.120106     0.000000 
  92.340000  1434.500000     0.000697  1213.163114     0.000000 
  92.360000  1586.200000     0.000630  1293.124404     0.000000 
  92.380000  1744.800000     0.000573  1375.767328     0.000000 
  92.400000  1869.000000     0.000535  1456.513655     0.000000 
  92.420000  1896.600000     0.000527  1529.399150     0.000000 
  92.440000  1849.000000     0.000541  1587.144515     0.000000 
  92.460000  1772.400000     0.000564  1622.632708     0.000000 
  92.480000  1641.400000     0.000609  1630.776063     0.000000 
  92.500000  1496.600000     0.000668  1610.180325     0.000000 
  92.520000  1387.000000     0.000721  1563.789324     0.000000 
  92.540000  1269.000000     0.000788  1497.626869     0.000000 
  92.560000  1200.000000     0.000833  1419.028732     0.000000 
  92.580000  1137.900000     0.000879  1334.855853     0.000000 
  92.600000  1131.000000     0.000884  1250.764746     0.000000 
  92.620000  1151.700000     0.000868  1171.095254     0.000000 
  92.640000  1179.300000     0.000848  1098.573742     0.000000 
  92.660000  1234.500000     0.000810  1034.460168     0.000000 
  92.680000  1275.900000     0.000784   979.573355     0.000000 
  92.700000  1310.300000     0.000763   933.868881     0.000000 
  92.720000  1284.000000     0.000779   896.466788     0.000000 
  92.740000  1277.000000     0.000783   867.195039     0.000000 
  92.760000  1213.800000     0.000824   844.533791     0.000000 
  92.780000  1124.100000     0.000890   827.446970     0.000000 
  92.800000  1048.300000     0.000954   814.892517     0.000000 
  92.820000   993.100000     0.001007   805.952247     0.000000 
  92.840000   889.000000     0.001125   799.865643     0.000000 
  92.860000   822.000000     0.001217   796.110026     0.000000 
  92.880000   800.000000     0.001250   794.114500     0.000000 
  92.900000   753.000000     0.001328   793.666666     0.000000 
  92.920000   710.300000     0.001408   794.658290     0.000000 
  92.940000   689.700000     0.001450   796.988977     0.000000 
  92.960000   675.000000     0.001481   800.836583     0.000000 
  92.980000   643.000000     0.001555   806.339222     0.000000 
  93.000000   694.500000     0.001440   813.889108     0.000000 
  93.020000   707.600000     0.001413   823.977621     0.000000 
  93.040000   738.000000     0.001355   837.243763     0.000000 
  93.060000   778.000000     0.001285   854.473703     0.000000 
  93.080000   821.000000     0.001218   876.586653     0.000000 
  93.100000   864.800000     0.001156   904.629816     0.000000 
  93.120000   981.000000     0.001019   939.610878     0.000000 
  93.140000  1039.000000     0.000962   982.585601     0.000000 
  93.160000  1153.000000     0.000867  1034.443959     0.000000 
  93.180000  1297.000000     0.000771  1095.815261     0.000000 
  93.200000  1480.700000     0.000675  1166.927091     0.000000 
  93.220000  1611.700000     0.000620  1247.443147     0.000000 
  93.240000  1665.000000     0.000601  1336.272051     0.000000 
  93.260000  1695.000000     0.000590  1431.185581     0.000000 
  93.280000  1635.000000     0.000612  1529.224777     0.000000 
  93.300000  1677.200000     0.000596  1625.625880     0.000000 
  93.320000  1638.000000     0.000611  1714.699081     0.000000 
  93.340000  1680.000000     0.000595  1790.497783     0.000000 
  93.360000  1723.000000     0.000580  1848.165444     0.000000 
  93.380000  1789.000000     0.000559  1885.124513     0.000000 
  93.400000  1847.600000     0.000541  1901.240968     0.000000 
  93.420000  1965.500000     0.000509  1897.873382     0.000000 
  93.440000  2070.300000     0.000483  1876.400087     0.000000 
  93.460000  2108.000000     0.000474  1837.948231     0.000000 
  93.480000  2127.000000     0.000470  1783.637986     0.000000 
  93.500000  2096.600000     0.000477  1715.998993     0.000000 
  93.520000  1991.700000     0.000502  1638.922545     0.000000 
  93.540000  1840.000000     0.000543  1557.466769     0.000000 
  93.560000  1794.000000     0.000557  1477.049206     0.000000 
  93.580000  1665.000000     0.000601  1402.345690     0.000000 
  93.600000  1613.000000     0.000620  1337.386132     0.000000 
  93.620000  1559.300000     0.000641  1284.905362     0.000000 
  93.640000  1559.300000     0.000641  1246.934271     0.000000 
  93.660000  1604.000000     0.000623  1224.883128     0.000000 
  93.680000  1742.800000     0.000574  1219.583313     0.000000 
  93.700000  1926.200000     0.000519  1231.466460     0.000000 
  93.720000  2133.000000     0.000469  1260.490232     0.000000 
  93.740000  2319.300000     0.000431  1306.127938     0.000000 
  93.760000  2502.800000     0.000400  1367.271991     0.000000 
  93.780000  2572.000000     0.000389  1442.115914     0.000000 
  93.800000  2628.000000     0.000381  1527.826929     0.000000 
  93.820000  2594.500000     0.000385  1620.951428     0.000000 
  93.840000  2542.100000     0.000393  1716.630792     0.000000 
  93.860000  2450.300000     0.000408  1808.934464     0.000000 
  93.880000  2345.500000     0.000426  1891.635054     0.000000 
  93.900000  2280.000000     0.000439  1958.862277     0.000000 
  93.920000  2214.500000     0.000452  2005.843957     0.000000 
  93.940000  2135.900000     0.000468  2029.170246     0.000000 
  93.960000  2094.000000     0.000478  2026.684091     0.000000 
  93.980000  2057.200000     0.000486  1997.635071     0.000000 
  94.000000  1991.700000     0.000502  1943.269438     0.000000 
  94.020000  1902.000000     0.000526  1867.286517     0.000000 
  94.040000  1847.600000     0.000541  1775.473155     0.000000 
  94.060000  1769.000000     0.000565  1674.557855     0.000000 
  94.080000  1716.600000     0.000583  1570.956514     0.000000 
  94.100000  1665.000000     0.000601  1469.971320     0.000000 
  94.120000  1633.000000     0.000612  1375.528100     0.000000 
  94.140000  1551.000000     0.000645  1290.249752     0.000000 
  94.160000  1558.000000     0.000642  1215.655247     0.000000 
  94.180000  1510.000000     0.000662  1152.371965     0.000000 
  94.200000  1486.000000     0.000673  1100.326792     0.000000 
  94.220000  1458.000000     0.000686  1058.914336     0.000000 
  94.240000  1466.000000     0.000682  1027.145833     0.000000 
  94.260000  1415.200000     0.000707  1003.778783     0.000000 
  94.280000  1375.900000     0.000727   987.441140     0.000000 
  94.300000  1310.300000     0.000763   976.656879     0.000000 
  94.320000  1279.000000     0.000782   970.016969     0.000000 
  94.340000  1179.300000     0.000848   966.210360     0.000000 
  94.360000  1123.000000     0.000890   964.157707     0.000000 
  94.380000  1085.000000     0.000922   963.147027     0.000000 
  94.400000  1041.000000     0.000961   962.932865     0.000000 
  94.420000   997.000000     0.001003   963.744046     0.000000 
  94.440000   948.000000     0.001055   966.200703     0.000000 
  94.460000   982.800000     0.001018   971.199013     0.000000 
  94.480000  1048.300000     0.000954   979.846925     0.000000 
  94.500000  1118.000000     0.000894   993.322205     0.000000 
  94.520000  1220.000000     0.000820  1012.998735     0.000000 
  94.540000  1421.000000     0.000704  1040.330389     0.000000 
  94.560000  1658.000000     0.000603  1076.836840     0.000000 
  94.580000  1995.000000     0.000501  1124.035031     0.000000 
  94.600000  2337.000000     0.000428  1183.342155     0.000000 
  94.620000  2685.000000     0.000372  1255.951322     0.000000 
  94.640000  3019.000000     0.000331  1342.688280     0.000000 
  94.660000  3292.000000     0.000304  1443.858805     0.000000 
  94.680000  3367.600000     0.000297  1559.094079     0.000000 
  94.700000  3364.000000     0.000297  1687.194878     0.000000 
  94.720000  3279.000000     0.000305  1825.966275     0.000000 
  94.740000  3066.000000     0.000326  1972.033136     0.000000 
  94.760000  2695.000000     0.000371  2120.653703     0.000000 
  94.780000  2420.000000     0.000413  2265.632017     0.000000 
  94.800000  2107.000000     0.000475  2399.564819     0.000000 
  94.820000  1886.900000     0.000530  2514.743728     0.000000 
  94.840000  1782.100000     0.000561  2604.840005     0.000000 
  94.860000  1709.000000     0.000585  2666.909752     0.000000 
  94.880000  1707.000000     0.000586  2702.665657     0.000000 
  94.900000  1750.000000     0.000571  2718.125202     0.000000 
  94.920000  2004.800000     0.000499  2721.763383     0.000000 
  94.940000  2271.000000     0.000440  2722.193090     0.000000 
  94.960000  2489.700000     0.000402  2726.352273     0.000000 
  94.980000  2764.800000     0.000362  2738.421086     0.000000 
  95.000000  3118.600000     0.000321  2759.805103     0.000000 
  95.020000  3296.000000     0.000303  2788.509520     0.000000 
  95.040000  3511.700000     0.000285  2819.620420     0.000000 
  95.060000  3695.200000     0.000271  2845.594949     0.000000 
  95.080000  3747.600000     0.000267  2857.369585     0.000000 
  95.100000  3747.600000     0.000267  2846.188450     0.000000 
  95.120000  3760.700000     0.000266  2805.991598     0.000000 
  95.140000  3695.200000     0.000271  2735.338164     0.000000 
  95.160000  3491.000000     0.000286  2637.876858     0.000000 
  95.180000  3109.000000     0.000322  2521.108651     0.000000 
  95.200000  2913.000000     0.000343  2394.337278     0.000000 
  95.220000  2663.000000     0.000376  2266.858824     0.000000 
  95.240000  2439.000000     0.000410  2146.836355     0.000000 
  95.260000  2380.300000     0.000420  2040.934504     0.000000 
  95.280000  2358.600000     0.000424  1954.312621     0.000000 
  95.300000  2476.600000     0.000404  1890.692385     0.000000 
  95.320000  2764.000000     0.000362  1852.476139     0.000000 
  95.340000  3092.400000     0.000323  1840.809700     0.000000 
  95.360000  3362.100000     0.000297  1855.631446     0.000000 
  95.380000  3616.600000     0.000277  1895.705266     0.000000 
  95.400000  3669.000000     0.000273  1958.620117     0.000000 
  95.420000  3682.100000     0.000272  2040.780988     0.000000 
  95.440000  3617.000000     0.000276  2137.367906     0.000000 
  95.460000  3356.000000     0.000298  2242.372965     0.000000 
  95.480000  3223.400000     0.000310  2348.858822     0.000000 
  95.500000  3053.100000     0.000328  2449.615874     0.000000 
  95.520000  2817.200000     0.000355  2538.231711     0.000000 
  95.540000  2729.000000     0.000366  2610.226601     0.000000 
  95.560000  2764.800000     0.000362  2663.581612     0.000000 
  95.580000  2843.400000     0.000352  2698.327304     0.000000 
  95.600000  3000.700000     0.000333  2715.262528     0.000000 
  95.620000  3223.400000     0.000310  2714.762729     0.000000 
  95.640000  3302.100000     0.000303  2696.096729     0.000000 
  95.660000  3289.000000     0.000304  2657.852489     0.000000 
  95.680000  3289.000000     0.000304  2599.051663     0.000000 
  95.700000  3171.000000     0.000315  2520.378248     0.000000 
  95.720000  2961.400000     0.000338  2424.746602     0.000000 
  95.740000  2725.500000     0.000367  2316.881530     0.000000 
  95.760000  2447.600000     0.000409  2202.258377     0.000000 
  95.780000  2200.000000     0.000455  2086.040440     0.000000 
  95.800000  1890.000000     0.000529  1972.424181     0.000000 
  95.820000  1716.600000     0.000583  1864.377129     0.000000 
  95.840000  1624.800000     0.000615  1763.621095     0.000000 
  95.860000  1572.400000     0.000636  1670.740542     0.000000 
  95.880000  1546.200000     0.000647  1585.396715     0.000000 
  95.900000  1598.600000     0.000626  1506.657192     0.000000 
  95.920000  1637.900000     0.000611  1433.404195     0.000000 
  95.940000  1703.400000     0.000587  1364.712617     0.000000 
  95.960000  1690.300000     0.000592  1300.068416     0.000000 
  95.980000  1650.000000     0.000606  1239.372343     0.000000 
  96.000000  1611.700000     0.000620  1182.788624     0.000000 
  96.020000  1473.000000     0.000679  1130.556744     0.000000 
  96.040000  1415.200000     0.000707  1082.856837     0.000000 
  96.060000  1297.200000     0.000771  1039.753421     0.000000 
  96.080000  1166.200000     0.000857  1001.195343     0.000000 
  96.100000  1058.000000     0.000945   967.043111     0.000000 
  96.120000   995.900000     0.001004   937.079838     0.000000 
  96.140000   917.200000     0.001090   911.053054     0.000000 
  96.160000   904.100000     0.001106   888.674468     0.000000 
  96.180000   851.700000     0.001174   869.635541     0.000000 
  96.200000   825.500000     0.001211   853.619281     0.000000 
  96.220000   794.000000     0.001259   840.313313     0.000000 
  96.240000   783.000000     0.001277   829.420226     0.000000 
  96.260000   774.600000     0.001291   820.657678     0.000000 
  96.280000   752.000000     0.001330   813.826767     0.000000 
  96.300000   741.500000     0.001349   808.727313     0.000000 
  96.320000   738.200000     0.001355   805.222005     0.000000 
  96.340000   731.600000     0.001367   803.220069     0.000000 
  96.360000   731.600000     0.001367   802.666909     0.000000 
  96.380000   741.500000     0.001349   803.559344     0.000000 
  96.400000   748.100000     0.001337   805.900951     0.000000 
  96.420000   748.100000     0.001337   809.712352     0.000000 
  96.440000   741.500000     0.001349   815.016135     0.000000 
  96.460000   734.900000     0.001361   821.818226     0.000000 
  96.480000   748.100000     0.001337   830.098215     0.000000 
  96.500000   748.100000     0.001337   839.795426     0.000000 
  96.520000   734.900000     0.001361   850.796349     0.000000 
  96.540000   744.800000     0.001343   862.635939     0.000000 
  96.560000   754.800000     0.001325   875.407282     0.000000 
  96.580000   771.300000     0.001297   888.956754     0.000000 
  96.600000   771.300000     0.001297   902.645421     0.000000 
  96.620000   758.100000     0.001319   916.013878     0.000000 
  96.640000   754.800000     0.001325   928.592506     0.000000 
  96.660000   768.000000     0.001302   939.976829     0.000000 
  96.680000   768.000000     0.001302   949.918783     0.000000 
  96.700000   754.800000     0.001325   958.391208     0.000000 
  96.720000   751.400000     0.001331   965.579042     0.000000 
  96.740000   754.800000     0.001325   971.787822     0.000000 
  96.760000   744.800000     0.001343   977.308346     0.000000 
  96.780000   744.800000     0.001343   982.292483     0.000000 
  96.800000   748.100000     0.001337   986.929825     0.000000 
  96.820000   754.800000     0.001325   990.423640     0.000000 
  96.840000   751.400000     0.001331   992.556468     0.000000 
  96.860000   744.800000     0.001343   992.800486     0.000000 
  96.880000   734.900000     0.001361   990.722840     0.000000 
  96.900000   734.900000     0.001361   986.116704     0.000000 
  96.920000   738.200000     0.001355   979.044411     0.000000 
  96.940000   741.500000     0.001349   969.774546     0.000000 
  96.960000   758.100000     0.001319   958.661321     0.000000 
  96.980000   754.800000     0.001325   946.042792     0.000000 
  97.000000   741.500000     0.001349   932.207555     0.000000 
  97.020000   734.900000     0.001361   917.425380     0.000000 
  97.040000   741.500000     0.001349   902.000223     0.000000 
  97.060000   758.100000     0.001319   886.298480     0.000000 
  97.080000   769.000000     0.001300   870.732534     0.000000 
  97.100000   771.000000     0.001297   855.714210     0.000000 
  97.120000   754.800000     0.001325   841.607561     0.000000 
  97.140000   751.000000     0.001332   828.701114     0.000000 
  97.160000   748.100000     0.001337   817.202712     0.000000 
  97.180000   768.000000     0.001302   807.249891     0.000000 
  97.200000   761.400000     0.001313   798.927339     0.000000 
  97.220000   748.100000     0.001337   792.285798     0.000000 
  97.240000   738.200000     0.001355   787.359685     0.000000 
  97.260000   751.400000     0.001331   784.201757     0.000000 
  97.280000   758.100000     0.001319   782.818862     0.000000 
  97.300000   748.100000     0.001337   783.297132     0.000000 
  97.320000   744.800000     0.001343   785.731680     0.000000 
  97.340000   748.300000     0.001336   790.248285     0.000000 
  97.360000   743.400000     0.001345   797.001397     0.000000 
  97.380000   753.100000     0.001328   806.193510     0.000000 
  97.400000   762.800000     0.001311   817.958356     0.000000 
  97.420000   772.400000     0.001295   832.501364     0.000000 
  97.440000   786.900000     0.001271   849.978352     0.000000 
  97.460000   811.000000     0.001233   870.482276     0.000000 
  97.480000   830.300000     0.001204   894.157575     0.000000 
  97.500000   864.100000     0.001157   920.694488     0.000000 
  97.520000   902.000000     0.001109   950.002308     0.000000 
  97.540000   955.900000     0.001046   981.721104     0.000000 
  97.560000   976.000000     0.001025  1015.311028     0.000000 
  97.580000  1008.000000     0.000992  1050.026718     0.000000 
  97.600000  1018.600000     0.000982  1084.496242     0.000000 
  97.620000  1033.100000     0.000968  1118.349739     0.000000 
  97.640000  1023.400000     0.000977  1149.852880     0.000000 
  97.660000  1004.100000     0.000996  1177.679745     0.000000 
  97.680000   965.500000     0.001036  1200.740553     0.000000 
  97.700000   960.700000     0.001041  1218.293786     0.000000 
  97.720000   951.000000     0.001052  1230.218465     0.000000 
  97.740000   965.500000     0.001036  1236.453204     0.000000 
  97.760000   963.000000     0.001038  1238.298977     0.000000 
  97.780000   994.500000     0.001006  1236.249405     0.000000 
  97.800000  1033.100000     0.000968  1231.192849     0.000000 
  97.820000  1100.700000     0.000909  1224.036921     0.000000 
  97.840000  1158.600000     0.000863  1215.648316     0.000000 
  97.860000  1231.000000     0.000812  1206.763356     0.000000 
  97.880000  1313.100000     0.000762  1197.889446     0.000000 
  97.900000  1342.100000     0.000745  1189.239613     0.000000 
  97.920000  1351.000000     0.000740  1180.732414     0.000000 
  97.940000  1346.900000     0.000742  1172.063650     0.000000 
  97.960000  1322.800000     0.000756  1162.828427     0.000000 
  97.980000  1289.000000     0.000776  1152.652426     0.000000 
  98.000000  1240.700000     0.000806  1141.292423     0.000000 
  98.020000  1190.000000     0.000840  1128.689894     0.000000 
  98.040000  1138.000000     0.000879  1114.987832     0.000000 
  98.060000  1063.000000     0.000941  1100.526471     0.000000 
  98.080000  1042.800000     0.000959  1085.821343     0.000000 
  98.100000  1028.300000     0.000972  1071.517381     0.000000 
  98.120000  1047.600000     0.000955  1058.322879     0.000000 
  98.140000  1081.400000     0.000925  1046.905146     0.000000 
  98.160000  1124.000000     0.000890  1037.846261     0.000000 
  98.180000  1187.600000     0.000842  1031.573762     0.000000 
  98.200000  1246.000000     0.000803  1028.350418     0.000000 
  98.220000  1300.000000     0.000769  1028.288757     0.000000 
  98.240000  1327.600000     0.000753  1031.080592     0.000000 
  98.260000  1329.000000     0.000752  1037.241195     0.000000 
  98.280000  1305.000000     0.000766  1046.296578     0.000000 
  98.300000  1260.000000     0.000794  1058.002150     0.000000 
  98.320000  1226.200000     0.000816  1071.931026     0.000000 
  98.340000  1149.000000     0.000870  1087.103952     0.000000 
  98.360000  1076.600000     0.000929  1103.619586     0.000000 
  98.380000  1023.400000     0.000977  1120.092774     0.000000 
  98.400000   965.500000     0.001036  1135.455987     0.000000 
  98.420000   936.600000     0.001068  1148.688459     0.000000 
  98.440000   897.900000     0.001114  1158.913625     0.000000 
  98.460000   897.900000     0.001114  1165.719785     0.000000 
  98.480000   909.000000     0.001100  1169.157474     0.000000 
  98.500000   941.400000     0.001062  1169.746061     0.000000 
  98.520000   965.500000     0.001036  1168.091291     0.000000 
  98.540000   989.700000     0.001010  1165.002366     0.000000 
  98.560000  1028.300000     0.000972  1161.083818     0.000000 
  98.580000  1071.700000     0.000933  1156.693494     0.000000 
  98.600000  1099.000000     0.000910  1151.918874     0.000000 
  98.620000  1127.000000     0.000887  1146.611299     0.000000 
  98.640000  1149.000000     0.000870  1140.453675     0.000000 
  98.660000  1127.000000     0.000887  1133.039047     0.000000 
  98.680000  1129.700000     0.000885  1123.945949     0.000000 
  98.700000  1092.000000     0.000916  1112.809697     0.000000 
  98.720000  1071.700000     0.000933  1099.403724     0.000000 
  98.740000  1028.300000     0.000972  1083.664361     0.000000 
  98.760000   980.000000     0.001020  1065.787367     0.000000 
  98.780000   931.700000     0.001073  1046.175720     0.000000 
  98.800000   902.800000     0.001108  1025.346220     0.000000 
  98.820000   859.300000     0.001164  1004.000822     0.000000 
  98.840000   835.200000     0.001197   982.691046     0.000000 
  98.860000   815.900000     0.001226   961.917488     0.000000 
  98.880000   815.900000     0.001226   942.059930     0.000000 
  98.900000   815.900000     0.001226   923.380843     0.000000 
  98.920000   835.200000     0.001197   906.050067     0.000000 
  98.940000   844.800000     0.001184   890.176211     0.000000 
  98.960000   854.500000     0.001170   875.830716     0.000000 
  98.980000   864.100000     0.001157   863.056173     0.000000 
  99.000000   859.300000     0.001164   851.859781     0.000000 
  99.020000   859.300000     0.001164   842.207570     0.000000 
  99.040000   844.800000     0.001184   833.983054     0.000000 
  99.060000   825.500000     0.001211   827.028638     0.000000 
  99.080000   801.400000     0.001248   821.120224     0.000000 
  99.100000   782.100000     0.001279   815.987963     0.000000 
  99.120000   777.200000     0.001287   811.338388     0.000000 
  99.140000   748.300000     0.001336   806.885086     0.000000 
  99.160000   743.400000     0.001345   802.383764     0.000000 
  99.180000   729.000000     0.001372   797.662605     0.000000 
  99.200000   724.100000     0.001381   792.637514     0.000000 
  99.220000   719.300000     0.001390   787.308988     0.000000 
  99.240000   714.500000     0.001400   781.941346     0.000000 
  99.260000   714.500000     0.001400   776.234381     0.000000 
  99.280000   714.500000     0.001400   770.513245     0.000000 
  99.300000   704.800000     0.001419   765.039799     0.000000 
  99.320000   709.700000     0.001409   759.666784     0.000000 
  99.340000   700.000000     0.001429   754.640343     0.000000 
  99.360000   704.800000     0.001419   749.641173     0.000000 
  99.380000   709.700000     0.001409   745.171121     0.000000 
  99.400000   718.000000     0.001393   741.678491     0.000000 
  99.420000   700.000000     0.001429   738.798422     0.000000 
  99.440000   701.700000     0.001425   736.554061     0.000000 
  99.460000   686.400000     0.001457   734.953016     0.000000 
  99.480000   689.000000     0.001451   733.988719     0.000000 
  99.500000   693.000000     0.001443   733.641791     0.000000 
  99.520000   695.000000     0.001439   734.005967     0.000000 
  99.540000   698.000000     0.001433   734.805481     0.000000 
  99.560000   683.900000     0.001462   736.083753     0.000000 
  99.580000   671.100000     0.001490   737.793029     0.000000 
  99.600000   668.600000     0.001496   739.860166     0.000000 
  99.620000   671.100000     0.001490   742.200276     0.000000 
  99.640000   673.700000     0.001484   744.717134     0.000000 
  99.660000   653.200000     0.001531   746.985045     0.000000 
  99.680000   650.700000     0.001537   748.957272     0.000000 
  99.700000   658.300000     0.001519   751.395968     0.000000 
  99.720000   651.000000     0.001536   753.639066     0.000000 
  99.740000   650.700000     0.001537   755.649845     0.000000 
  99.760000   648.100000     0.001543   757.423595     0.000000 
  99.780000   653.200000     0.001531   758.976771     0.000000 
  99.800000   663.400000     0.001507   760.329977     0.000000 
  99.820000   659.000000     0.001517   761.490702     0.000000 
  99.840000   655.800000     0.001525   762.440444     0.000000 
  99.860000   658.300000     0.001519   763.128424     0.000000 
  99.880000   671.100000     0.001490   763.472881     0.000000 
  99.900000   673.700000     0.001484   763.370758     0.000000 
  99.920000   660.900000     0.001513   762.782123     0.000000 
  99.940000   658.300000     0.001519   761.490302     0.000000 
  99.960000   671.100000     0.001490   759.521558     0.000000 
  99.980000   676.200000     0.001479   756.896108     0.000000 
 100.000000   668.600000     0.001496   753.692942     0.000000 
 100.020000   666.000000     0.001502   750.034539     0.000000 
 100.040000   658.300000     0.001519   746.064673     0.000000 
 100.060000   663.400000     0.001507   741.927849     0.000000 
 100.080000   657.000000     0.001522   737.755393     0.000000 
 100.100000   650.000000     0.001538   733.647121     0.000000 
 100.120000   658.300000     0.001519   729.716480     0.000000 
 100.140000   663.400000     0.001507   726.021665     0.000000 
 100.160000   648.100000     0.001543   722.057284     0.000000 
 100.180000   648.100000     0.001543   718.979374     0.000000 
 100.200000   648.100000     0.001543   716.248782     0.000000 
 100.220000   649.000000     0.001541   713.877320     0.000000 
 100.240000   650.000000     0.001538   711.867524     0.000000 
 100.260000   653.200000     0.001531   710.214627     0.000000 
 100.280000   655.800000     0.001525   708.908440     0.000000 
 100.300000   649.000000     0.001541   707.935082     0.000000 
 100.320000   648.100000     0.001543   707.278447     0.000000 
 100.340000   637.900000     0.001568   706.921325     0.000000 
 100.360000   635.400000     0.001574   706.310374     0.000000 
 100.380000   640.500000     0.001561   706.655108     0.000000 
 100.400000   650.700000     0.001537   707.096685     0.000000 
 100.420000   648.100000     0.001543   707.789958     0.000000 
 100.440000   630.300000     0.001587   708.668425     0.000000 
 100.460000   632.800000     0.001580   709.715863     0.000000 
 100.480000   643.000000     0.001555   711.122532     0.000000 
 100.500000   644.000000     0.001553   712.485788     0.000000 
 100.520000   635.400000     0.001574   713.948808     0.000000 
 100.540000   637.000000     0.001570   715.471226     0.000000 
 100.560000   637.000000     0.001570   717.005437     0.000000 
 100.580000   633.000000     0.001580   718.496499     0.000000 
 100.600000   637.900000     0.001568   719.978637     0.000000 
 100.620000   643.000000     0.001555   721.215095     0.000000 
 100.640000   645.600000     0.001549   722.109942     0.000000 
 100.660000   632.800000     0.001580   722.790333     0.000000 
 100.680000   632.800000     0.001580   723.220893     0.000000 
 100.700000   630.300000     0.001587   723.356210     0.000000 
 100.720000   638.000000     0.001567   723.219686     0.000000 
 100.740000   643.000000     0.001555   722.851340     0.000000 
 100.760000   645.600000     0.001549   722.298986     0.000000 
 100.780000   632.800000     0.001580   721.610437     0.000000 
 100.800000   630.300000     0.001587   720.838673     0.000000 
 100.820000   640.500000     0.001561   720.000883     0.000000 
 100.840000   648.100000     0.001543   719.139247     0.000000 
 100.860000   645.600000     0.001549   718.283951     0.000000 
 100.880000   635.400000     0.001574   717.465248     0.000000 
 100.900000   637.900000     0.001568   716.714093     0.000000 
 100.920000   645.600000     0.001549   716.060973     0.000000 
 100.940000   648.100000     0.001543   715.533547     0.000000 
 100.960000   643.000000     0.001555   715.154096     0.000000 
 100.980000   643.000000     0.001555   714.937587     0.000000 
 101.000000   637.900000     0.001568   714.890691     0.000000 
 101.020000   646.000000     0.001548   715.097807     0.000000 
 101.040000   650.700000     0.001537   715.378436     0.000000 
 101.060000   640.500000     0.001561   715.803293     0.000000 
 101.080000   635.400000     0.001574   716.353607     0.000000 
 101.100000   643.000000     0.001555   717.008231     0.000000 
 101.120000   653.000000     0.001531   717.802603     0.000000 
 101.140000   650.700000     0.001537   718.595704     0.000000 
 101.160000   645.600000     0.001549   719.417044     0.000000 
 101.180000   632.800000     0.001580   720.233074     0.000000 
 101.200000   632.800000     0.001580   721.004122     0.000000 
 101.220000   640.500000     0.001561   721.684965     0.000000 
 101.240000   648.100000     0.001543   722.275805     0.000000 
 101.260000   645.600000     0.001549   722.634486     0.000000 
 101.280000   640.500000     0.001561   722.771699     0.000000 
 101.300000   630.300000     0.001587   722.665125     0.000000 
 101.320000   635.400000     0.001574   722.311606     0.000000 
 101.340000   648.100000     0.001543   721.737231     0.000000 
 101.360000   651.000000     0.001536   720.955912     0.000000 
 101.380000   650.700000     0.001537   720.020797     0.000000 
 101.400000   637.900000     0.001568   718.979815     0.000000 
 101.420000   632.800000     0.001580   717.891820     0.000000 
 101.440000   640.500000     0.001561   716.767161     0.000000 
 101.460000   648.100000     0.001543   715.690314     0.000000 
 101.480000   648.100000     0.001543   714.638435     0.000000 
 101.500000   637.900000     0.001568   713.654586     0.000000 
 101.520000   637.900000     0.001568   712.754345     0.000000 
 101.540000   650.700000     0.001537   711.884426     0.000000 
 101.560000   650.700000     0.001537   711.181566     0.000000 
 101.580000   635.400000     0.001574   710.586699     0.000000 
 101.600000   630.300000     0.001587   710.104379     0.000000 
 101.620000   637.900000     0.001568   709.738332     0.000000 
 101.640000   650.700000     0.001537   709.491350     0.000000 
 101.660000   655.800000     0.001525   709.364970     0.000000 
 101.680000   640.500000     0.001561   709.359158     0.000000 
 101.700000   640.500000     0.001561   709.517224     0.000000 
 101.720000   645.600000     0.001549   709.753312     0.000000 
 101.740000   655.800000     0.001525   710.091670     0.000000 
 101.760000   658.300000     0.001519   710.559350     0.000000 
 101.780000   653.200000     0.001531   711.010745     0.000000 
 101.800000   645.600000     0.001549   711.634731     0.000000 
 101.820000   645.600000     0.001549   712.325350     0.000000 
 101.840000   650.700000     0.001537   713.072509     0.000000 
 101.860000   648.100000     0.001543   713.859545     0.000000 
 101.880000   663.000000     0.001508   714.667698     0.000000 
 101.900000   649.000000     0.001541   715.476548     0.000000 
 101.920000   650.000000     0.001538   716.265066     0.000000 
 101.940000   666.000000     0.001502   716.975268     0.000000 
 101.960000   662.100000     0.001510   717.691470     0.000000 
 101.980000   646.600000     0.001547   718.317430     0.000000 
 102.000000   662.100000     0.001510   718.874769     0.000000 
 102.020000   646.600000     0.001547   719.369653     0.000000 
 102.040000   641.400000     0.001559   719.815514     0.000000 
 102.060000   641.400000     0.001559   720.265834     0.000000 
 102.080000   646.600000     0.001547   720.673109     0.000000 
 102.100000   662.100000     0.001510   721.108995     0.000000 
 102.120000   651.700000     0.001534   721.571835     0.000000 
 102.140000   662.000000     0.001511   722.101604     0.000000 
 102.160000   651.000000     0.001536   722.727537     0.000000 
 102.180000   667.200000     0.001499   723.497037     0.000000 
 102.200000   672.400000     0.001487   724.418950     0.000000 
 102.220000   662.100000     0.001510   725.551720     0.000000 
 102.240000   651.700000     0.001534   726.947165     0.000000 
 102.260000   662.100000     0.001510   728.666761     0.000000 
 102.280000   667.200000     0.001499   730.783745     0.000000 
 102.300000   680.000000     0.001471   733.385322     0.000000 
 102.320000   662.100000     0.001510   736.574796     0.000000 
 102.340000   654.000000     0.001529   740.473336     0.000000 
 102.360000   662.100000     0.001510   745.223093     0.000000 
 102.380000   668.000000     0.001497   750.979377     0.000000 
 102.400000   662.000000     0.001511   757.921407     0.000000 
 102.420000   656.900000     0.001522   766.241567     0.000000 
 102.440000   658.000000     0.001520   776.142684     0.000000 
 102.460000   675.000000     0.001481   787.831248     0.000000 
 102.480000   672.400000     0.001487   801.508500     0.000000 
 102.500000   687.900000     0.001454   817.359497     0.000000 
 102.520000   703.400000     0.001422   835.540447     0.000000 
 102.540000   719.000000     0.001391   856.164745     0.000000 
 102.560000   755.200000     0.001324   879.288290     0.000000 
 102.580000   786.200000     0.001272   904.894734     0.000000 
 102.600000   838.000000     0.001193   932.878753     0.000000 
 102.620000   884.000000     0.001131   963.042242     0.000000 
 102.640000   998.300000     0.001002   995.067374     0.000000 
 102.660000  1086.200000     0.000921  1028.514597     0.000000 
 102.680000  1205.200000     0.000830  1062.809227     0.000000 
 102.700000  1324.100000     0.000755  1097.231640     0.000000 
 102.720000  1401.700000     0.000713  1130.910825     0.000000 
 102.740000  1443.100000     0.000693  1162.668657     0.000000 
 102.760000  1474.100000     0.000678  1191.674134     0.000000 
 102.780000  1458.600000     0.000686  1216.542302     0.000000 
 102.800000  1422.400000     0.000703  1236.062663     0.000000 
 102.820000  1319.000000     0.000758  1249.172269     0.000000 
 102.840000  1231.000000     0.000812  1255.097148     0.000000 
 102.860000  1127.600000     0.000887  1253.457730     0.000000 
 102.880000  1034.500000     0.000967  1244.533037     0.000000 
 102.900000   962.100000     0.001039  1228.880916     0.000000 
 102.920000   910.300000     0.001099  1207.483040     0.000000 
 102.940000   868.000000     0.001152  1181.531158     0.000000 
 102.960000   848.000000     0.001179  1152.304347     0.000000 
 102.980000   853.400000     0.001172  1120.977638     0.000000 
 103.000000   884.500000     0.001131  1088.678693     0.000000 
 103.020000   915.500000     0.001092  1056.374726     0.000000 
 103.040000   925.900000     0.001080  1024.884886     0.000000 
 103.060000   993.100000     0.001007   994.814222     0.000000 
 103.080000  1034.500000     0.000967   966.843171     0.000000 
 103.100000  1058.000000     0.000945   941.316483     0.000000 
 103.120000  1081.000000     0.000925   918.631758     0.000000 
 103.140000  1065.500000     0.000939   898.759858     0.000000 
 103.160000  1039.700000     0.000962   881.984701     0.000000 
 103.180000   982.800000     0.001018   868.302555     0.000000 
 103.200000   915.500000     0.001092   857.774704     0.000000 
 103.220000   864.000000     0.001157   850.148104     0.000000 
 103.240000   840.000000     0.001190   845.396361     0.000000 
 103.260000   796.600000     0.001255   843.378515     0.000000 
 103.280000   791.000000     0.001264   843.934846     0.000000 
 103.300000   734.500000     0.001361   846.892559     0.000000 
 103.320000   724.100000     0.001381   852.069248     0.000000 
 103.340000   708.600000     0.001411   859.274811     0.000000 
 103.360000   698.300000     0.001432   868.312897     0.000000 
 103.380000   708.600000     0.001411   878.982920     0.000000 
 103.400000   708.600000     0.001411   891.055308     0.000000 
 103.420000   719.000000     0.001391   904.385932     0.000000 
 103.440000   755.000000     0.001325   918.750107     0.000000 
 103.460000   765.500000     0.001306   933.951280     0.000000 
 103.480000   791.400000     0.001264   949.784864     0.000000 
 103.500000   827.600000     0.001208   966.026440     0.000000 
 103.520000   889.700000     0.001124   982.420138     0.000000 
 103.540000   941.400000     0.001062   998.670530     0.000000 
 103.560000  1034.500000     0.000967  1014.441930     0.000000 
 103.580000  1096.600000     0.000912  1029.362922     0.000000 
 103.600000  1210.300000     0.000826  1043.035909     0.000000 
 103.620000  1261.000000     0.000793  1055.049973     0.000000 
 103.640000  1298.000000     0.000770  1064.843364     0.000000 
 103.660000  1319.000000     0.000758  1072.351858     0.000000 
 103.680000  1298.300000     0.000770  1077.111205     0.000000 
 103.700000  1241.400000     0.000806  1078.926016     0.000000 
 103.720000  1220.700000     0.000819  1077.752929     0.000000 
 103.740000  1143.100000     0.000875  1073.719661     0.000000 
 103.760000  1081.000000     0.000925  1067.112986     0.000000 
 103.780000  1044.800000     0.000957  1058.336934     0.000000 
 103.800000  1008.600000     0.000991  1047.853888     0.000000 
 103.820000  1003.400000     0.000997  1036.125234     0.000000 
 103.840000  1003.400000     0.000997  1023.564403     0.000000 
 103.860000  1024.100000     0.000976  1010.507784     0.000000 
 103.880000  1060.300000     0.000943   997.158261     0.000000 
 103.900000  1117.200000     0.000895   983.767338     0.000000 
 103.920000  1174.100000     0.000852   970.377786     0.000000 
 103.940000  1200.000000     0.000833   957.024495     0.000000 
 103.960000  1225.900000     0.000816   943.712398     0.000000 
 103.980000  1225.900000     0.000816   930.374521     0.000000 
 104.000000  1210.300000     0.000826   917.152350     0.000000 
 104.020000  1184.500000     0.000844   903.974918     0.000000 
 104.040000  1132.800000     0.000883   890.990565     0.000000 
 104.060000  1091.400000     0.000916   878.249593     0.000000 
 104.080000  1024.100000     0.000976   865.860935     0.000000 
 104.100000   982.800000     0.001018   853.938793     0.000000 
 104.120000   915.500000     0.001092   842.591610     0.000000 
 104.140000   874.100000     0.001144   831.914168     0.000000 
 104.160000   848.300000     0.001179   821.983525     0.000000 
 104.180000   827.600000     0.001208   812.858241     0.000000 
 104.200000   812.100000     0.001231   804.579687     0.000000 
 104.220000   817.200000     0.001224   797.154654     0.000000 
 104.240000   811.000000     0.001233   790.789708     0.000000 
 104.260000   822.400000     0.001216   785.163338     0.000000 
 104.280000   817.200000     0.001224   780.423319     0.000000 
 104.300000   817.200000     0.001224   776.558400     0.000000 
 104.320000   806.900000     0.001239   773.552103     0.000000 
 104.340000   791.400000     0.001264   771.384054     0.000000 
 104.360000   765.500000     0.001306   770.031202     0.000000 
 104.380000   744.800000     0.001343   769.468939     0.000000 
 104.400000   724.100000     0.001381   769.672121     0.000000 
 104.420000   717.000000     0.001395   770.616024     0.000000 
 104.440000   707.000000     0.001414   772.533894     0.000000 
 104.460000   690.300000     0.001449   774.893007     0.000000 
 104.480000   684.100000     0.001462   778.100737     0.000000 
 104.500000   682.800000     0.001465   781.782009     0.000000 
 104.520000   684.100000     0.001462   786.150283     0.000000 
 104.540000   687.200000     0.001455   791.179255     0.000000 
 104.560000   692.000000     0.001445   796.872292     0.000000 
 104.580000   696.700000     0.001435   803.233000     0.000000 
 104.600000   705.900000     0.001417   810.255453     0.000000 
 104.620000   708.900000     0.001411   817.936431     0.000000 
 104.640000   718.100000     0.001393   826.242883     0.000000 
 104.660000   718.100000     0.001393   835.125729     0.000000 
 104.680000   733.500000     0.001363   844.513265     0.000000 
 104.700000   751.900000     0.001330   854.311699     0.000000 
 104.720000   764.200000     0.001309   864.407899     0.000000 
 104.740000   794.900000     0.001258   874.673570     0.000000 
 104.760000   822.500000     0.001216   884.974357     0.000000 
 104.780000   844.000000     0.001185   895.283803     0.000000 
 104.800000   865.400000     0.001156   905.389039     0.000000 
 104.820000   878.600000     0.001138   914.843519     0.000000 
 104.840000   883.900000     0.001131   923.639897     0.000000 
 104.860000   871.600000     0.001147   931.582874     0.000000 
 104.880000   856.200000     0.001168   938.464891     0.000000 
 104.900000   841.000000     0.001189   944.040570     0.000000 
 104.920000   850.100000     0.001176   948.315482     0.000000 
 104.940000   862.400000     0.001160   950.722852     0.000000 
 104.960000   881.800000     0.001134   951.338451     0.000000 
 104.980000   886.900000     0.001128   950.231638     0.000000 
 105.000000   880.800000     0.001135   947.194951     0.000000 
 105.020000   859.300000     0.001164   942.467936     0.000000 
 105.040000   837.800000     0.001194   936.269420     0.000000 
 105.060000   822.100000     0.001216   928.821155     0.000000 
 105.080000   804.100000     0.001244   920.437097     0.000000 
 105.100000   797.900000     0.001253   911.420119     0.000000 
 105.120000   801.000000     0.001248   902.059102     0.000000 
 105.140000   816.300000     0.001225   892.614010     0.000000 
 105.160000   816.300000     0.001225   883.293105     0.000000 
 105.180000   816.300000     0.001225   874.311324     0.000000 
 105.200000   801.000000     0.001248   865.802047     0.000000 
 105.220000   788.000000     0.001269   857.882832     0.000000 
 105.240000   776.400000     0.001288   850.647437     0.000000 
 105.260000   770.300000     0.001298   844.173985     0.000000 
 105.280000   773.400000     0.001293   838.533087     0.000000 
 105.300000   787.600000     0.001270   833.794783     0.000000 
 105.320000   787.600000     0.001270   830.033543     0.000000 
 105.340000   794.900000     0.001258   827.331127     0.000000 
 105.360000   785.700000     0.001273   825.777937     0.000000 
 105.380000   770.300000     0.001298   825.473341     0.000000 
 105.400000   748.800000     0.001335   826.526204     0.000000 
 105.420000   731.100000     0.001368   829.055570     0.000000 
 105.440000   727.300000     0.001375   833.167145     0.000000 
 105.460000   718.600000     0.001392   839.049957     0.000000 
 105.480000   718.600000     0.001392   846.830526     0.000000 
 105.500000   721.700000     0.001386   856.667564     0.000000 
 105.520000   718.600000     0.001392   868.723966     0.000000 
 105.540000   715.400000     0.001398   883.161463     0.000000 
 105.560000   749.000000     0.001335   900.133868     0.000000 
 105.580000   771.000000     0.001297   919.779251     0.000000 
 105.600000   762.000000     0.001312   942.228613     0.000000 
 105.620000   791.000000     0.001264   967.529101     0.000000 
 105.640000   826.900000     0.001209   995.737646     0.000000 
 105.660000   850.000000     0.001176  1026.844360     0.000000 
 105.680000   902.800000     0.001108  1060.855987     0.000000 
 105.700000   944.000000     0.001059  1097.484662     0.000000 
 105.720000  1054.500000     0.000948  1136.588833     0.000000 
 105.740000  1153.100000     0.000867  1177.860993     0.000000 
 105.760000  1274.500000     0.000785  1220.891223     0.000000 
 105.780000  1418.600000     0.000705  1265.156468     0.000000 
 105.800000  1555.200000     0.000643  1310.012223     0.000000 
 105.820000  1684.100000     0.000594  1354.688932     0.000000 
 105.840000  1737.200000     0.000576  1398.296795     0.000000 
 105.860000  1797.900000     0.000556  1439.844442     0.000000 
 105.880000  1813.100000     0.000552  1478.335165     0.000000 
 105.900000  1813.100000     0.000552  1512.593432     0.000000 
 105.920000  1820.700000     0.000549  1541.696243     0.000000 
 105.940000  1835.900000     0.000545  1564.830573     0.000000 
 105.960000  1835.900000     0.000545  1581.438528     0.000000 
 105.980000  1790.300000     0.000559  1591.276621     0.000000 
 106.000000  1729.700000     0.000578  1594.438775     0.000000 
 106.020000  1615.900000     0.000619  1591.335854     0.000000 
 106.040000  1509.700000     0.000662  1582.637784     0.000000 
 106.060000  1464.100000     0.000683  1569.190353     0.000000 
 106.080000  1441.400000     0.000694  1551.922177     0.000000 
 106.100000  1479.300000     0.000676  1531.756854     0.000000 
 106.120000  1562.800000     0.000640  1509.540389     0.000000 
 106.140000  1722.100000     0.000581  1485.989617     0.000000 
 106.160000  1851.000000     0.000540  1461.661624     0.000000 
 106.180000  1995.200000     0.000501  1436.942291     0.000000 
 106.200000  2082.000000     0.000480  1412.051638     0.000000 
 106.220000  2162.100000     0.000463  1387.064800     0.000000 
 106.240000  2146.900000     0.000466  1361.951676     0.000000 
 106.260000  2124.100000     0.000471  1336.611304     0.000000 
 106.280000  2040.700000     0.000490  1310.950091     0.000000 
 106.300000  1919.300000     0.000521  1284.910945     0.000000 
 106.320000  1790.300000     0.000559  1258.557017     0.000000 
 106.340000  1661.400000     0.000602  1232.029429     0.000000 
 106.360000  1547.600000     0.000646  1205.568659     0.000000 
 106.380000  1426.200000     0.000701  1179.490712     0.000000 
 106.400000  1320.000000     0.000758  1154.139553     0.000000 
 106.420000  1244.100000     0.000804  1129.853955     0.000000 
 106.440000  1183.400000     0.000845  1106.940453     0.000000 
 106.460000  1145.500000     0.000873  1085.703964     0.000000 
 106.480000  1137.000000     0.000880  1066.251652     0.000000 
 106.500000  1160.700000     0.000862  1048.774067     0.000000 
 106.520000  1198.600000     0.000834  1033.356593     0.000000 
 106.540000  1236.600000     0.000809  1020.037894     0.000000 
 106.560000  1270.000000     0.000787  1008.800157     0.000000 
 106.580000  1312.400000     0.000762   999.580454     0.000000 
 106.600000  1320.000000     0.000758   992.271129     0.000000 
 106.620000  1297.200000     0.000771   986.722450     0.000000 
 106.640000  1289.700000     0.000775   982.745828     0.000000 
 106.660000  1236.600000     0.000809   980.120247     0.000000 
 106.680000  1183.400000     0.000845   978.591555     0.000000 
 106.700000  1115.200000     0.000897   977.894185     0.000000 
 106.720000  1092.400000     0.000915   977.759216     0.000000 
 106.740000  1039.300000     0.000962   977.934248     0.000000 
 106.760000  1016.600000     0.000984   978.210764     0.000000 
 106.780000   978.600000     0.001022   978.446875     0.000000 
 106.800000   963.400000     0.001038   978.586650     0.000000 
 106.820000   937.000000     0.001067   978.680493     0.000000 
 106.840000   925.500000     0.001080   978.878426     0.000000 
 106.860000   905.000000     0.001105   979.403739     0.000000 
 106.880000   910.300000     0.001099   980.566748     0.000000 
 106.900000   902.800000     0.001108   982.719022     0.000000 
 106.920000   914.500000     0.001093   986.241275     0.000000 
 106.940000   926.200000     0.001080   991.512233     0.000000 
 106.960000   937.900000     0.001066   998.914264     0.000000 
 106.980000   961.400000     0.001040  1008.808923     0.000000 
 107.000000   996.600000     0.001003  1021.530683     0.000000 
 107.020000  1020.000000     0.000980  1037.400065     0.000000 
 107.040000  1072.800000     0.000932  1056.620340     0.000000 
 107.060000  1113.800000     0.000898  1079.425171     0.000000 
 107.080000  1178.300000     0.000849  1105.940584     0.000000 
 107.100000  1254.500000     0.000797  1136.235554     0.000000 
 107.120000  1289.700000     0.000775  1170.285933     0.000000 
 107.140000  1354.100000     0.000738  1207.978412     0.000000 
 107.160000  1424.500000     0.000702  1249.097888     0.000000 
 107.180000  1471.400000     0.000680  1293.368711     0.000000 
 107.200000  1534.000000     0.000652  1340.246703     0.000000 
 107.220000  1575.000000     0.000635  1389.212774     0.000000 
 107.240000  1600.000000     0.000625  1439.649594     0.000000 
 107.260000  1606.200000     0.000623  1490.580382     0.000000 
 107.280000  1600.300000     0.000625  1541.153823     0.000000 
 107.300000  1586.000000     0.000631  1590.355906     0.000000 
 107.320000  1553.400000     0.000644  1637.151045     0.000000 
 107.340000  1559.300000     0.000641  1680.442286     0.000000 
 107.360000  1553.400000     0.000644  1719.264477     0.000000 
 107.380000  1547.600000     0.000646  1752.823939     0.000000 
 107.400000  1576.900000     0.000634  1780.245488     0.000000 
 107.420000  1606.200000     0.000623  1801.079833     0.000000 
 107.440000  1623.800000     0.000616  1814.960789     0.000000 
 107.460000  1647.200000     0.000607  1821.688765     0.000000 
 107.480000  1653.100000     0.000605  1821.310499     0.000000 
 107.500000  1641.400000     0.000609  1813.984014     0.000000 
 107.520000  1629.700000     0.000614  1800.090860     0.000000 
 107.540000  1594.500000     0.000627  1780.144105     0.000000 
 107.560000  1571.000000     0.000637  1754.776392     0.000000 
 107.580000  1524.100000     0.000656  1724.763197     0.000000 
 107.600000  1489.000000     0.000672  1690.689126     0.000000 
 107.620000  1465.500000     0.000682  1653.353947     0.000000 
 107.640000  1424.500000     0.000702  1613.479008     0.000000 
 107.660000  1371.700000     0.000729  1571.725601     0.000000 
 107.680000  1324.800000     0.000755  1528.788382     0.000000 
 107.700000  1289.700000     0.000775  1485.345661     0.000000 
 107.720000  1283.800000     0.000779  1442.072610     0.000000 
 107.740000  1266.200000     0.000790  1399.629465     0.000000 
 107.760000  1260.000000     0.000794  1358.660825     0.000000 
 107.780000  1266.200000     0.000790  1319.698049     0.000000 
 107.800000  1282.000000     0.000780  1283.253715     0.000000 
 107.820000  1266.000000     0.000790  1249.733818     0.000000 
 107.840000  1260.000000     0.000794  1219.451692     0.000000 
 107.860000  1248.000000     0.000801  1192.626010     0.000000 
 107.880000  1213.400000     0.000824  1169.401603     0.000000 
 107.900000  1184.100000     0.000845  1149.835942     0.000000 
 107.920000  1154.800000     0.000866  1133.922690     0.000000 
 107.940000  1113.800000     0.000898  1121.595750     0.000000 
 107.960000  1096.200000     0.000912  1112.735009     0.000000 
 107.980000  1078.600000     0.000927  1107.170001     0.000000 
 108.000000  1066.900000     0.000937  1104.681830     0.000000 
 108.020000  1055.200000     0.000948  1105.004143     0.000000 
 108.040000  1043.400000     0.000958  1107.823918     0.000000 
 108.060000  1055.200000     0.000948  1112.782429     0.000000 
 108.080000  1051.000000     0.000951  1119.480943     0.000000 
 108.100000  1061.000000     0.000943  1127.483558     0.000000 
 108.120000  1072.800000     0.000932  1136.329076     0.000000 
 108.140000  1090.300000     0.000917  1145.546542     0.000000 
 108.160000  1131.400000     0.000884  1154.673869     0.000000 
 108.180000  1149.000000     0.000870  1163.279758     0.000000 
 108.200000  1178.300000     0.000849  1170.984404     0.000000 
 108.220000  1231.000000     0.000812  1177.475051     0.000000 
 108.240000  1277.900000     0.000783  1182.513693     0.000000 
 108.260000  1321.000000     0.000757  1185.936589     0.000000 
 108.280000  1395.200000     0.000717  1187.647861     0.000000 
 108.300000  1453.800000     0.000688  1187.610725     0.000000 
 108.320000  1491.000000     0.000671  1185.839116     0.000000 
 108.340000  1552.000000     0.000644  1182.390462     0.000000 
 108.360000  1571.000000     0.000637  1177.358936     0.000000 
 108.380000  1576.900000     0.000634  1170.868123     0.000000 
 108.400000  1559.300000     0.000641  1163.063241     0.000000 
 108.420000  1506.600000     0.000664  1154.124764     0.000000 
 108.440000  1447.900000     0.000691  1144.260309     0.000000 
 108.460000  1371.700000     0.000729  1133.510333     0.000000 
 108.480000  1306.000000     0.000766  1122.139478     0.000000 
 108.500000  1266.200000     0.000790  1110.381639     0.000000 
 108.520000  1225.200000     0.000816  1098.355721     0.000000 
 108.540000  1190.000000     0.000840  1086.301187     0.000000 
 108.560000  1178.300000     0.000849  1074.410215     0.000000 
 108.580000  1154.000000     0.000867  1062.871703     0.000000 
 108.600000  1160.700000     0.000862  1051.817169     0.000000 
 108.620000  1172.400000     0.000853  1041.387293     0.000000 
 108.640000  1164.000000     0.000859  1031.682742     0.000000 
 108.660000  1178.300000     0.000849  1022.776482     0.000000 
 108.680000  1213.400000     0.000824  1014.716309     0.000000 
 108.700000  1242.800000     0.000805  1007.529134     0.000000 
 108.720000  1257.000000     0.000796  1001.226477     0.000000 
 108.740000  1266.200000     0.000790   995.861355     0.000000 
 108.760000  1266.200000     0.000790   991.330759     0.000000 
 108.780000  1254.500000     0.000797   987.683950     0.000000 
 108.800000  1238.000000     0.000808   984.921314     0.000000 
 108.820000  1212.000000     0.000825   983.043665     0.000000 
 108.840000  1166.600000     0.000857   982.048406     0.000000 
 108.860000  1125.500000     0.000888   981.924082     0.000000 
 108.880000  1096.200000     0.000912   982.644437     0.000000 
 108.900000  1079.000000     0.000927   984.163069     0.000000 
 108.920000  1049.000000     0.000953   986.159105     0.000000 
 108.940000  1015.000000     0.000985   989.037699     0.000000 
 108.960000  1006.000000     0.000994   992.423198     0.000000 
 108.980000   977.000000     0.001024   996.167264     0.000000 
 109.000000   963.000000     0.001038  1000.101656     0.000000 
 109.020000   949.700000     0.001053  1004.045797     0.000000 
 109.040000   929.000000     0.001076  1007.817160     0.000000 
 109.060000   932.100000     0.001073  1011.243649     0.000000 
 109.080000   917.000000     0.001091  1014.176541     0.000000 
 109.100000   923.400000     0.001083  1016.501899     0.000000 
 109.120000   926.200000     0.001080  1018.148602     0.000000 
 109.140000   945.000000     0.001058  1019.091654     0.000000 
 109.160000   945.000000     0.001058  1019.350575     0.000000 
 109.180000   943.000000     0.001060  1018.983368     0.000000 
 109.200000   957.000000     0.001045  1018.077217     0.000000 
 109.220000   959.300000     0.001042  1016.737174     0.000000 
 109.240000   968.300000     0.001033  1015.074099     0.000000 
 109.260000   986.200000     0.001014  1013.193132     0.000000 
 109.280000  1025.000000     0.000976  1011.183769     0.000000 
 109.300000  1039.000000     0.000962  1009.112479     0.000000 
 109.320000  1062.400000     0.000941  1007.025585     0.000000 
 109.340000  1112.000000     0.000899  1004.919176     0.000000 
 109.360000  1147.600000     0.000871  1002.784093     0.000000 
 109.380000  1201.400000     0.000832  1000.580962     0.000000 
 109.400000  1232.800000     0.000811   998.252550     0.000000 
 109.420000  1246.200000     0.000802   995.729248     0.000000 
 109.440000  1246.200000     0.000802   993.055521     0.000000 
 109.460000  1241.700000     0.000805   989.909464     0.000000 
 109.480000  1192.400000     0.000839   986.333822     0.000000 
 109.500000  1147.600000     0.000871   982.268031     0.000000 
 109.520000  1093.800000     0.000914   977.627683     0.000000 
 109.540000  1062.400000     0.000941   972.378890     0.000000 
 109.560000  1035.500000     0.000966   966.496259     0.000000 
 109.580000   981.700000     0.001019   959.977030     0.000000 
 109.600000   941.400000     0.001062   952.850040     0.000000 
 109.620000   936.900000     0.001067   945.121452     0.000000 
 109.640000   932.400000     0.001073   936.899121     0.000000 
 109.660000   911.000000     0.001098   928.240452     0.000000 
 109.680000   906.000000     0.001104   919.234067     0.000000 
 109.700000   897.000000     0.001115   909.977051     0.000000 
 109.720000   910.000000     0.001099   900.571430     0.000000 
 109.740000   932.000000     0.001073   891.120615     0.000000 
 109.760000   946.000000     0.001057   881.725789     0.000000 
 109.780000   954.800000     0.001047   872.482471     0.000000 
 109.800000   968.300000     0.001033   863.451421     0.000000 
 109.820000   965.000000     0.001036   854.761288     0.000000 
 109.840000   959.300000     0.001042   846.450579     0.000000 
 109.860000   945.900000     0.001057   838.569537     0.000000 
 109.880000   945.000000     0.001058   831.154700     0.000000 
 109.900000   927.000000     0.001079   824.242527     0.000000 
 109.920000   874.100000     0.001144   817.848104     0.000000 
 109.940000   856.200000     0.001168   811.982269     0.000000 
 109.960000   845.000000     0.001183   806.533964     0.000000 
 109.980000   815.900000     0.001226   801.733360     0.000000 
 110.000000   789.000000     0.001267   797.459407     0.000000 
 110.020000   784.500000     0.001275   793.704167     0.000000 
 110.040000   787.000000     0.001271   790.457843     0.000000 
 110.060000   753.100000     0.001328   787.709769     0.000000 
 110.080000   747.000000     0.001339   785.449398     0.000000 
 110.100000   744.100000     0.001344   783.667304     0.000000 
 110.120000   733.000000     0.001364   782.356171     0.000000 
 110.140000   730.700000     0.001369   781.511752     0.000000 
 110.160000   699.300000     0.001430   781.135446     0.000000 
 110.180000   690.300000     0.001449   781.228350     0.000000 
 110.200000   699.000000     0.001431   781.802052     0.000000 
 110.220000   703.800000     0.001421   782.886817     0.000000 
 110.240000   694.800000     0.001439   784.452834     0.000000 
 110.260000   694.000000     0.001441   786.590424     0.000000 
 110.280000   713.800000     0.001401   789.311736     0.000000 
 110.300000   732.000000     0.001366   792.659200     0.000000 
 110.320000   725.000000     0.001379   796.655283     0.000000 
 110.340000   726.000000     0.001377   801.422183     0.000000 
 110.360000   720.000000     0.001389   806.979799     0.000000 
 110.380000   720.000000     0.001389   813.376185     0.000000 
 110.400000   744.800000     0.001343   820.693799     0.000000 
 110.420000   757.200000     0.001321   829.001188     0.000000 
 110.440000   737.000000     0.001357   838.366322     0.000000 
 110.460000   751.000000     0.001332   848.854306     0.000000 
 110.480000   757.200000     0.001321   860.524730     0.000000 
 110.500000   757.200000     0.001321   873.428689     0.000000 
 110.520000   769.700000     0.001299   887.605523     0.000000 
 110.540000   779.000000     0.001284   903.079356     0.000000 
 110.560000   800.700000     0.001249   919.855601     0.000000 
 110.580000   813.100000     0.001230   937.917626     0.000000 
 110.600000   850.300000     0.001176   957.223814     0.000000 
 110.620000   893.800000     0.001119   977.705295     0.000000 
 110.640000   962.100000     0.001039   999.264549     0.000000 
 110.660000  1030.000000     0.000971  1021.774893     0.000000 
 110.680000  1073.800000     0.000931  1045.080727     0.000000 
 110.700000  1198.000000     0.000835  1068.998043     0.000000 
 110.720000  1291.000000     0.000775  1093.314721     0.000000 
 110.740000  1377.900000     0.000726  1117.790049     0.000000 
 110.760000  1486.000000     0.000673  1142.153384     0.000000 
 110.780000  1557.900000     0.000642  1166.102403     0.000000 
 110.800000  1620.000000     0.000617  1189.301994     0.000000 
 110.820000  1663.400000     0.000601  1211.385254     0.000000 
 110.840000  1698.000000     0.000589  1231.958053     0.000000 
 110.860000  1688.300000     0.000592  1250.608371     0.000000 
 110.880000  1645.000000     0.000608  1266.920641     0.000000 
 110.900000  1634.000000     0.000612  1280.494419     0.000000 
 110.920000  1613.800000     0.000620  1290.965719     0.000000 
 110.940000  1577.000000     0.000634  1298.023706     0.000000 
 110.960000  1551.700000     0.000644  1301.451115     0.000000 
 110.980000  1516.000000     0.000660  1301.109696     0.000000 
 111.000000  1464.800000     0.000683  1296.971947     0.000000 
 111.020000  1390.300000     0.000719  1289.120912     0.000000 
 111.040000  1353.100000     0.000739  1277.747971     0.000000 
 111.060000  1309.700000     0.000764  1263.142873     0.000000 
 111.080000  1266.200000     0.000790  1245.676665     0.000000 
 111.100000  1229.000000     0.000814  1225.779262     0.000000 
 111.120000  1185.500000     0.000844  1203.914614     0.000000 
 111.140000  1191.700000     0.000839  1180.556736     0.000000 
 111.160000  1210.300000     0.000826  1156.169116     0.000000 
 111.180000  1212.000000     0.000825  1131.189685     0.000000 
 111.200000  1229.000000     0.000814  1106.009463     0.000000 
 111.220000  1253.800000     0.000798  1081.081988     0.000000 
 111.240000  1260.000000     0.000794  1056.553791     0.000000 
 111.260000  1260.000000     0.000794  1032.769203     0.000000 
 111.280000  1247.600000     0.000802  1009.949277     0.000000 
 111.300000  1235.200000     0.000810   988.272169     0.000000 
 111.320000  1210.300000     0.000826   967.875831     0.000000 
 111.340000  1191.700000     0.000839   948.860326     0.000000 
 111.360000  1158.000000     0.000864   931.291880     0.000000 
 111.380000  1135.900000     0.000880   915.182415     0.000000 
 111.400000  1098.600000     0.000910   900.586692     0.000000 
 111.420000  1075.000000     0.000930   887.572516     0.000000 
 111.440000  1036.000000     0.000965   875.891446     0.000000 
 111.460000   986.900000     0.001013   865.594620     0.000000 
 111.480000   943.400000     0.001060   856.629614     0.000000 
 111.500000   906.200000     0.001104   848.861660     0.000000 
 111.520000   875.200000     0.001143   842.333524     0.000000 
 111.540000   862.800000     0.001159   836.909291     0.000000 
 111.560000   819.300000     0.001221   832.513768     0.000000 
 111.580000   813.100000     0.001230   829.075827     0.000000 
 111.600000   784.000000     0.001276   826.530647     0.000000 
 111.620000   782.100000     0.001279   824.821557     0.000000 
 111.640000   779.000000     0.001284   823.901582     0.000000 
 111.660000   753.000000     0.001328   823.734641     0.000000 
 111.680000   769.700000     0.001299   824.296466     0.000000 
 111.700000   757.200000     0.001321   825.575241     0.000000 
 111.720000   759.000000     0.001318   827.681076     0.000000 
 111.740000   744.800000     0.001343   830.410360     0.000000 
 111.760000   757.000000     0.001321   833.898923     0.000000 
 111.780000   748.300000     0.001336   838.186791     0.000000 
 111.800000   748.300000     0.001336   843.326519     0.000000 
 111.820000   747.000000     0.001339   849.382648     0.000000 
 111.840000   755.000000     0.001325   856.421054     0.000000 
 111.860000   767.000000     0.001304   864.548023     0.000000 
 111.880000   772.400000     0.001295   873.849217     0.000000 
 111.900000   772.400000     0.001295   884.428503     0.000000 
 111.920000   796.600000     0.001255   896.493524     0.000000 
 111.940000   812.000000     0.001232   909.966377     0.000000 
 111.960000   832.800000     0.001201   925.062806     0.000000 
 111.980000   854.000000     0.001171   941.903145     0.000000 
 112.000000   885.000000     0.001130   960.606719     0.000000 
 112.020000   941.400000     0.001062   981.289314     0.000000 
 112.040000   986.000000     0.001014  1004.083687     0.000000 
 112.060000  1074.100000     0.000931  1029.043595     0.000000 
 112.080000  1154.000000     0.000867  1056.290078     0.000000 
 112.100000  1243.100000     0.000804  1085.873803     0.000000 
 112.120000  1315.000000     0.000760  1117.856026     0.000000 
 112.140000  1387.900000     0.000721  1152.263038     0.000000 
 112.160000  1472.400000     0.000679  1189.091701     0.000000 
 112.180000  1508.600000     0.000663  1228.304396     0.000000 
 112.200000  1508.600000     0.000663  1269.824004     0.000000 
 112.220000  1520.700000     0.000658  1313.529180     0.000000 
 112.240000  1496.600000     0.000668  1359.250665     0.000000 
 112.260000  1424.100000     0.000702  1406.769499     0.000000 
 112.280000  1428.000000     0.000700  1455.818172     0.000000 
 112.300000  1315.500000     0.000760  1506.085642     0.000000 
 112.320000  1269.000000     0.000788  1557.219379     0.000000 
 112.340000  1255.200000     0.000797  1608.869331     0.000000 
 112.360000  1267.200000     0.000789  1660.659267     0.000000 
 112.380000  1303.400000     0.000767  1712.233781     0.000000 
 112.400000  1327.600000     0.000753  1763.264168     0.000000 
 112.420000  1436.200000     0.000696  1813.455242     0.000000 
 112.440000  1556.900000     0.000642  1862.545213     0.000000 
 112.460000  1762.100000     0.000568  1910.288834     0.000000 
 112.480000  1991.400000     0.000502  1956.450770     0.000000 
 112.500000  2256.900000     0.000443  2000.780502     0.000000 
 112.520000  2498.300000     0.000400  2042.998149     0.000000 
 112.540000  2703.400000     0.000370  2082.785837     0.000000 
 112.560000  2872.400000     0.000348  2119.790225     0.000000 
 112.580000  2956.900000     0.000338  2153.637996     0.000000 
 112.600000  3029.300000     0.000330  2183.963840     0.000000 
 112.620000  2996.000000     0.000334  2210.455410     0.000000 
 112.640000  2993.100000     0.000334  2232.892715     0.000000 
 112.660000  2884.500000     0.000347  2250.995940     0.000000 
 112.680000  2775.900000     0.000360  2265.268231     0.000000 
 112.700000  2546.600000     0.000393  2275.797491     0.000000 
 112.720000  2377.600000     0.000421  2282.928543     0.000000 
 112.740000  2269.000000     0.000441  2287.568803     0.000000 
 112.760000  2184.500000     0.000458  2290.337557     0.000000 
 112.780000  2136.200000     0.000468  2292.048287     0.000000 
 112.800000  2124.100000     0.000471  2293.516822     0.000000 
 112.820000  2208.600000     0.000453  2295.509691     0.000000 
 112.840000  2329.300000     0.000429  2298.853774     0.000000 
 112.860000  2457.000000     0.000407  2303.793475     0.000000 
 112.880000  2645.000000     0.000378  2310.883081     0.000000 
 112.900000  2795.000000     0.000358  2320.383613     0.000000 
 112.920000  3066.000000     0.000326  2332.325513     0.000000 
 112.940000  3234.500000     0.000309  2346.628933     0.000000 
 112.960000  3331.000000     0.000300  2363.024948     0.000000 
 112.980000  3403.400000     0.000294  2381.084521     0.000000 
 113.000000  3401.000000     0.000294  2400.233796     0.000000 
 113.020000  3358.000000     0.000298  2419.889094     0.000000 
 113.040000  3258.600000     0.000307  2439.051573     0.000000 
 113.060000  3137.900000     0.000319  2456.976569     0.000000 
 113.080000  2981.000000     0.000335  2472.818087     0.000000 
 113.100000  2884.500000     0.000347  2485.790842     0.000000 
 113.120000  2679.000000     0.000373  2495.151062     0.000000 
 113.140000  2663.000000     0.000376  2500.253934     0.000000 
 113.160000  2628.000000     0.000381  2500.582201     0.000000 
 113.180000  2619.000000     0.000382  2495.728493     0.000000 
 113.200000  2667.200000     0.000375  2485.392021     0.000000 
 113.220000  2739.700000     0.000365  2469.365685     0.000000 
 113.240000  2831.000000     0.000353  2447.526983     0.000000 
 113.260000  2904.000000     0.000344  2419.834957     0.000000 
 113.280000  3027.000000     0.000330  2386.335003     0.000000 
 113.300000  3077.600000     0.000325  2347.169107     0.000000 
 113.320000  3113.800000     0.000321  2302.603701     0.000000 
 113.340000  3077.600000     0.000325  2252.970468     0.000000 
 113.360000  3005.200000     0.000333  2198.772267     0.000000 
 113.380000  2934.000000     0.000341  2140.579908     0.000000 
 113.400000  2722.000000     0.000367  2079.071658     0.000000 
 113.420000  2604.000000     0.000384  2014.972157     0.000000 
 113.440000  2430.000000     0.000412  1949.043839     0.000000 
 113.460000  2205.000000     0.000454  1882.049734     0.000000 
 113.480000  1914.000000     0.000522  1814.730706     0.000000 
 113.500000  1790.000000     0.000559  1747.796757     0.000000 
 113.520000  1662.000000     0.000602  1681.866122     0.000000 
 113.540000  1514.000000     0.000661  1617.524468     0.000000 
 113.560000  1448.300000     0.000690  1555.273595     0.000000 
 113.580000  1412.000000     0.000708  1495.591054     0.000000 
 113.600000  1429.000000     0.000700  1438.731719     0.000000 
 113.620000  1405.000000     0.000712  1385.029347     0.000000 
 113.640000  1484.500000     0.000674  1334.701757     0.000000 
 113.660000  1569.000000     0.000637  1287.905492     0.000000 
 113.680000  1593.100000     0.000628  1244.679413     0.000000 
 113.700000  1617.200000     0.000618  1205.198092     0.000000 
 113.720000  1617.200000     0.000618  1169.405306     0.000000 
 113.740000  1581.000000     0.000633  1137.268152     0.000000 
 113.760000  1534.000000     0.000652  1108.724879     0.000000 
 113.780000  1484.500000     0.000674  1083.671539     0.000000 
 113.800000  1370.000000     0.000730  1061.994516     0.000000 
 113.820000  1315.500000     0.000760  1043.556502     0.000000 
 113.840000  1249.000000     0.000801  1028.205089     0.000000 
 113.860000  1158.600000     0.000863  1015.776284     0.000000 
 113.880000  1086.200000     0.000921  1006.097510     0.000000 
 113.900000  1050.000000     0.000952   998.990086     0.000000 
 113.920000  1025.900000     0.000975   994.271191     0.000000 
 113.940000   989.700000     0.001010   991.818126     0.000000 
 113.960000   965.000000     0.001036   991.318258     0.000000 
 113.980000   953.400000     0.001049   992.645764     0.000000 
 114.000000   965.500000     0.001036   995.611163     0.000000 
 114.020000  1004.000000     0.000996  1000.023737     0.000000 
 114.040000  1053.000000     0.000950  1005.691156     0.000000 
 114.060000  1091.000000     0.000917  1012.418976     0.000000 
 114.080000  1158.000000     0.000864  1020.010224     0.000000 
 114.100000  1237.000000     0.000808  1028.342617     0.000000 
 114.120000  1316.000000     0.000760  1037.059330     0.000000 
 114.140000  1417.000000     0.000706  1046.033491     0.000000 
 114.160000  1484.500000     0.000674  1055.060800     0.000000 
 114.180000  1520.700000     0.000658  1063.938995     0.000000 
 114.200000  1534.000000     0.000652  1072.471087     0.000000 
 114.220000  1520.000000     0.000658  1080.469474     0.000000 
 114.240000  1508.600000     0.000663  1087.760899     0.000000 
 114.260000  1472.400000     0.000679  1094.197772     0.000000 
 114.280000  1436.200000     0.000696  1099.639786     0.000000 
 114.300000  1403.000000     0.000713  1103.994057     0.000000 
 114.320000  1383.000000     0.000723  1107.210375     0.000000 
 114.340000  1380.000000     0.000725  1109.222752     0.000000 
 114.360000  1360.000000     0.000735  1109.999245     0.000000 
 114.380000  1375.900000     0.000727  1109.501747     0.000000 
 114.400000  1354.000000     0.000739  1108.025517     0.000000 
 114.420000  1382.000000     0.000724  1105.471355     0.000000 
 114.440000  1363.800000     0.000733  1101.894802     0.000000 
 114.460000  1339.700000     0.000746  1097.327335     0.000000 
 114.480000  1339.700000     0.000746  1091.867502     0.000000 
 114.500000  1327.600000     0.000753  1085.540223     0.000000 
 114.520000  1339.700000     0.000746  1078.367587     0.000000 
 114.540000  1293.000000     0.000773  1070.274644     0.000000 
 114.560000  1303.400000     0.000767  1061.649481     0.000000 
 114.580000  1303.000000     0.000767  1052.385051     0.000000 
 114.600000  1294.000000     0.000773  1042.604656     0.000000 
 114.620000  1260.000000     0.000794  1032.335713     0.000000 
 114.640000  1263.000000     0.000792  1021.731484     0.000000 
 114.660000  1219.000000     0.000820  1010.919013     0.000000 
 114.680000  1194.800000     0.000837  1000.030891     0.000000 
 114.700000  1182.800000     0.000845   989.201070     0.000000 
 114.720000  1148.000000     0.000871   978.559348     0.000000 
 114.740000  1146.600000     0.000872   968.132826     0.000000 
 114.760000  1116.000000     0.000896   958.223038     0.000000 
 114.780000  1081.000000     0.000925   948.816134     0.000000 
 114.800000  1104.000000     0.000906   940.028534     0.000000 
 114.820000  1062.100000     0.000942   931.914921     0.000000 
 114.840000  1050.000000     0.000952   924.531796     0.000000 
 114.860000  1062.100000     0.000942   917.922097     0.000000 
 114.880000  1068.000000     0.000936   912.173480     0.000000 
 114.900000  1037.000000     0.000964   907.187932     0.000000 
 114.920000   987.000000     0.001013   903.028650     0.000000 
 114.940000   989.700000     0.001010   899.689306     0.000000 
 114.960000   976.000000     0.001025   897.153429     0.000000 
 114.980000   977.600000     0.001023   895.446523     0.000000 
 115.000000   948.000000     0.001055   894.442919     0.000000 
 115.020000   934.000000     0.001071   894.121075     0.000000 
 115.040000   917.200000     0.001090   894.433474     0.000000 
 115.060000   941.000000     0.001063   895.340783     0.000000 
 115.080000   904.000000     0.001106   896.767816     0.000000 
 115.100000   883.000000     0.001133   898.643743     0.000000 
 115.120000   863.000000     0.001159   900.892724     0.000000 
 115.140000   893.100000     0.001120   903.434410     0.000000 
 115.160000   893.100000     0.001120   906.184446     0.000000 
 115.180000   881.000000     0.001135   909.055107     0.000000 
 115.200000   856.900000     0.001167   911.956169     0.000000 
 115.220000   861.000000     0.001161   914.796187     0.000000 
 115.240000   879.000000     0.001138   917.484295     0.000000 
 115.260000   868.000000     0.001152   919.941917     0.000000 
 115.280000   892.000000     0.001121   922.068981     0.000000 
 115.300000   869.000000     0.001151   923.802972     0.000000 
 115.320000   856.900000     0.001167   925.090965     0.000000 
 115.340000   869.000000     0.001151   925.882930     0.000000 
 115.360000   844.800000     0.001184   926.164199     0.000000 
 115.380000   850.300000     0.001176   925.937523     0.000000 
 115.400000   869.000000     0.001151   925.142686     0.000000 
 115.420000   856.600000     0.001167   923.996819     0.000000 
 115.440000   857.000000     0.001167   922.477855     0.000000 
 115.460000   850.300000     0.001176   920.663535     0.000000 
 115.480000   856.000000     0.001168   918.641416     0.000000 
 115.500000   862.800000     0.001159   916.508837     0.000000 
 115.520000   875.200000     0.001143   914.353974     0.000000 
 115.540000   862.800000     0.001159   912.276609     0.000000 
 115.560000   850.300000     0.001176   910.343006     0.000000 
 115.580000   856.600000     0.001167   908.699910     0.000000 
 115.600000   875.200000     0.001143   907.408682     0.000000 
 115.620000   875.200000     0.001143   906.591519     0.000000 
 115.640000   862.800000     0.001159   906.241456     0.000000 
 115.660000   862.800000     0.001159   906.476460     0.000000 
 115.680000   881.400000     0.001135   907.365967     0.000000 
 115.700000   875.200000     0.001143   908.974620     0.000000 
 115.720000   881.400000     0.001135   911.362107     0.000000 
 115.740000   884.000000     0.001131   914.535272     0.000000 
 115.760000   864.000000     0.001157   918.639212     0.000000 
 115.780000   893.000000     0.001120   923.669996     0.000000 
 115.800000   878.000000     0.001139   929.697185     0.000000 
 115.820000   887.600000     0.001127   936.710328     0.000000 
 115.840000   912.400000     0.001096   944.732924     0.000000 
 115.860000   924.800000     0.001081   953.805105     0.000000 
 115.880000   937.200000     0.001067   963.943598     0.000000 
 115.900000   969.700000     0.001031   975.170038     0.000000 
 115.920000   993.100000     0.001007   987.466019     0.000000 
 115.940000  1028.600000     0.000972  1000.846218     0.000000 
 115.960000  1049.000000     0.000953  1015.284286     0.000000 
 115.980000  1113.800000     0.000898  1030.767344     0.000000 
 116.000000  1159.700000     0.000862  1047.266367     0.000000 
 116.020000  1231.700000     0.000812  1064.743376     0.000000 
 116.040000  1310.300000     0.000763  1083.139812     0.000000 
 116.060000  1395.500000     0.000717  1102.423386     0.000000 
 116.080000  1461.000000     0.000684  1122.517714     0.000000 
 116.100000  1533.100000     0.000652  1143.327287     0.000000 
 116.120000  1559.300000     0.000641  1164.811768     0.000000 
 116.140000  1564.100000     0.000639  1186.854366     0.000000 
 116.160000  1546.200000     0.000647  1209.347372     0.000000 
 116.180000  1500.300000     0.000667  1232.176980     0.000000 
 116.200000  1441.400000     0.000694  1255.189515     0.000000 
 116.220000  1369.300000     0.000730  1278.240091     0.000000 
 116.240000  1343.100000     0.000745  1301.161032     0.000000 
 116.260000  1271.000000     0.000787  1323.772563     0.000000 
 116.280000  1238.300000     0.000808  1345.886939     0.000000 
 116.300000  1212.100000     0.000825  1367.370712     0.000000 
 116.320000  1179.300000     0.000848  1387.930218     0.000000 
 116.340000  1159.700000     0.000862  1407.433015     0.000000 
 116.360000  1153.100000     0.000867  1425.723510     0.000000 
 116.380000  1173.100000     0.000852  1442.661019     0.000000 
 116.400000  1190.000000     0.000840  1458.126305     0.000000 
 116.420000  1204.100000     0.000830  1472.022214     0.000000 
 116.440000  1260.000000     0.000794  1484.335723     0.000000 
 116.460000  1322.100000     0.000756  1494.935387     0.000000 
 116.480000  1409.000000     0.000710  1503.681484     0.000000 
 116.500000  1461.000000     0.000684  1510.675964     0.000000 
 116.520000  1571.000000     0.000637  1515.861211     0.000000 
 116.540000  1609.000000     0.000622  1519.210836     0.000000 
 116.560000  1719.300000     0.000582  1520.712255     0.000000 
 116.580000  1761.000000     0.000568  1520.341895     0.000000 
 116.600000  1791.000000     0.000558  1518.169491     0.000000 
 116.620000  1781.400000     0.000561  1514.198261     0.000000 
 116.640000  1744.100000     0.000573  1508.489903     0.000000 
 116.660000  1681.000000     0.000595  1501.110799     0.000000 
 116.680000  1633.000000     0.000612  1492.147339     0.000000 
 116.700000  1533.100000     0.000652  1481.697417     0.000000 
 116.720000  1476.000000     0.000678  1469.865500     0.000000 
 116.740000  1379.000000     0.000725  1456.757619     0.000000 
 116.760000  1322.100000     0.000756  1442.477032     0.000000 
 116.780000  1272.000000     0.000786  1427.121273     0.000000 
 116.800000  1216.600000     0.000822  1410.780948     0.000000 
 116.820000  1179.300000     0.000848  1393.540338     0.000000 
 116.840000  1129.700000     0.000885  1375.483552     0.000000 
 116.860000  1117.200000     0.000895  1356.682010     0.000000 
 116.880000  1094.100000     0.000914  1337.197829     0.000000 
 116.900000  1074.500000     0.000931  1317.166106     0.000000 
 116.920000  1104.000000     0.000906  1296.658081     0.000000 
 116.940000  1100.700000     0.000909  1275.776804     0.000000 
 116.960000  1107.200000     0.000903  1254.632817     0.000000 
 116.980000  1140.000000     0.000877  1233.339366     0.000000 
 117.000000  1166.200000     0.000857  1212.018722     0.000000 
 117.020000  1199.000000     0.000834  1190.740343     0.000000 
 117.040000  1192.400000     0.000839  1169.690060     0.000000 
 117.060000  1212.100000     0.000825  1148.938345     0.000000 
 117.080000  1204.000000     0.000831  1128.583679     0.000000 
 117.100000  1185.900000     0.000843  1108.716524     0.000000 
 117.120000  1173.100000     0.000852  1089.411126     0.000000 
 117.140000  1123.400000     0.000890  1070.769589     0.000000 
 117.160000  1084.000000     0.000923  1052.852126     0.000000 
 117.180000  1061.400000     0.000942  1035.725998     0.000000 
 117.200000  1032.000000     0.000969  1019.453304     0.000000 
 117.220000  1011.700000     0.000988  1004.076609     0.000000 
 117.240000   986.900000     0.001013   989.737911     0.000000 
 117.260000   971.000000     0.001030   976.346307     0.000000 
 117.280000   962.100000     0.001039   964.004484     0.000000 
 117.300000   933.000000     0.001072   952.794951     0.000000 
 117.320000   924.800000     0.001081   942.653637     0.000000 
 117.340000   918.600000     0.001089   933.654025     0.000000 
 117.360000   906.200000     0.001104   925.817735     0.000000 
 117.380000   900.000000     0.001111   919.162416     0.000000 
 117.400000   904.100000     0.001106   913.712307     0.000000 
 117.420000   891.000000     0.001122   909.457671     0.000000 
 117.440000   892.000000     0.001121   906.416170     0.000000 
 117.460000   881.000000     0.001135   904.592148     0.000000 
 117.480000   864.000000     0.001157   903.999016     0.000000 
 117.500000   860.700000     0.001162   904.610121     0.000000 
 117.520000   865.200000     0.001156   906.429857     0.000000 
 117.540000   869.700000     0.001150   909.452342     0.000000 
 117.560000   874.100000     0.001144   913.661237     0.000000 
 117.580000   865.200000     0.001156   919.037159     0.000000 
 117.600000   860.700000     0.001162   925.555091     0.000000 
 117.620000   860.700000     0.001162   933.183732     0.000000 
 117.640000   889.700000     0.001124   941.884839     0.000000 
 117.660000   885.500000     0.001129   951.612534     0.000000 
 117.680000   918.600000     0.001089   962.312626     0.000000 
 117.700000   939.300000     0.001065   973.921927     0.000000 
 117.720000   968.300000     0.001033   986.367600     0.000000 
 117.740000  1013.800000     0.000986   999.566518     0.000000 
 117.760000  1075.900000     0.000929  1013.424655     0.000000 
 117.780000  1137.900000     0.000879  1027.836552     0.000000 
 117.800000  1166.900000     0.000857  1042.684840     0.000000 
 117.820000  1183.400000     0.000845  1057.839933     0.000000 
 117.840000  1166.900000     0.000857  1073.159967     0.000000 
 117.860000  1137.900000     0.000879  1088.491112     0.000000 
 117.880000  1075.900000     0.000929  1103.668426     0.000000 
 117.900000  1013.800000     0.000986  1118.517494     0.000000 
 117.920000   976.600000     0.001024  1132.856974     0.000000 
 117.940000   939.300000     0.001065  1146.502267     0.000000 
 117.960000   897.900000     0.001114  1159.270262     0.000000 
 117.980000   885.500000     0.001129  1170.985084     0.000000 
 118.000000   864.800000     0.001156  1181.484450     0.000000 
 118.020000   852.400000     0.001173  1190.626126     0.000000 
 118.040000   840.000000     0.001190  1198.293794     0.000000 
 118.060000   840.000000     0.001190  1204.401733     0.000000 
 118.080000   835.900000     0.001196  1208.897662     0.000000 
 118.100000   827.600000     0.001208  1211.763615     0.000000 
 118.120000   827.600000     0.001208  1213.014667     0.000000 
 118.140000   827.600000     0.001208  1212.695873     0.000000 
 118.160000   844.100000     0.001185  1210.880043     0.000000 
 118.180000   860.700000     0.001162  1207.653558     0.000000 
 118.200000   885.500000     0.001129  1203.124025     0.000000 
 118.220000   931.000000     0.001074  1197.406791     0.000000 
 118.240000   947.600000     0.001055  1190.618333     0.000000 
 118.260000   972.400000     0.001028  1182.877404     0.000000 
 118.280000   972.400000     0.001028  1174.297699     0.000000 
 118.300000   951.700000     0.001051  1164.986116     0.000000 
 118.320000   943.400000     0.001060  1155.041044     0.000000 
 118.340000   902.100000     0.001109  1144.551649     0.000000 
 118.360000   873.100000     0.001145  1133.598137     0.000000 
 118.380000   860.700000     0.001162  1122.252943     0.000000 
 118.400000   840.000000     0.001190  1110.582661     0.000000 
 118.420000   819.300000     0.001221  1098.651194     0.000000 
 118.440000   811.000000     0.001233  1086.519588     0.000000 
 118.460000   811.000000     0.001233  1074.252641     0.000000 
 118.480000   798.600000     0.001252  1061.897523     0.000000 
 118.500000   798.600000     0.001252  1049.567480     0.000000 
 118.520000   806.900000     0.001239  1037.318837     0.000000 
 118.540000   806.900000     0.001239  1025.232423     0.000000 
 118.560000   798.600000     0.001252  1013.391570     0.000000 
 118.580000   790.300000     0.001265  1001.880296     0.000000 
 118.600000   790.300000     0.001265   990.781441     0.000000 
 118.620000   794.500000     0.001259   980.174956     0.000000 
 118.640000   790.300000     0.001265   970.136576     0.000000 
 118.660000   790.300000     0.001265   960.736860     0.000000 
 118.680000   811.000000     0.001233   952.040682     0.000000 
 118.700000   815.200000     0.001227   944.107012     0.000000 
 118.720000   806.900000     0.001239   936.988946     0.000000 
 118.740000   794.500000     0.001259   930.644678     0.000000 
 118.760000   794.500000     0.001259   925.294990     0.000000 
 118.780000   806.900000     0.001239   920.886757     0.000000 
 118.800000   815.200000     0.001227   917.451349     0.000000 
 118.820000   806.900000     0.001239   915.014962     0.000000 
 118.840000   798.600000     0.001252   913.598536     0.000000 
 118.860000   802.800000     0.001246   913.090044     0.000000 
 118.880000   819.300000     0.001221   913.753668     0.000000 
 118.900000   811.000000     0.001233   915.477178     0.000000 
 118.920000   819.300000     0.001221   918.237194     0.000000 
 118.940000   815.900000     0.001226   922.033609     0.000000 
 118.960000   820.300000     0.001219   926.849240     0.000000 
 118.980000   811.400000     0.001232   932.658993     0.000000 
 119.000000   820.300000     0.001219   939.429384     0.000000 
 119.020000   824.800000     0.001212   947.118099     0.000000 
 119.040000   833.800000     0.001199   955.679743     0.000000 
 119.060000   847.200000     0.001180   965.040907     0.000000 
 119.080000   860.700000     0.001162   975.136762     0.000000 
 119.100000   887.600000     0.001127   985.886291     0.000000 
 119.120000   914.500000     0.001093   997.198327     0.000000 
 119.140000   932.400000     0.001073  1008.971544     0.000000 
 119.160000   963.800000     0.001038  1021.094542     0.000000 
 119.180000   972.800000     0.001028  1033.446071     0.000000 
 119.200000  1004.100000     0.000996  1045.895374     0.000000 
 119.220000  1062.400000     0.000941  1058.319512     0.000000 
 119.240000  1120.700000     0.000892  1070.536910     0.000000 
 119.260000  1165.500000     0.000858  1082.428450     0.000000 
 119.280000  1201.400000     0.000832  1093.794394     0.000000 
 119.300000  1237.200000     0.000808  1104.489192     0.000000 
 119.320000  1259.700000     0.000794  1114.346843     0.000000 
 119.340000  1264.100000     0.000791  1123.203774     0.000000 
 119.360000  1264.100000     0.000791  1130.903110     0.000000 
 119.380000  1246.200000     0.000802  1137.300301     0.000000 
 119.400000  1192.400000     0.000839  1142.268181     0.000000 
 119.420000  1138.600000     0.000878  1145.816333     0.000000 
 119.440000  1102.800000     0.000907  1147.643385     0.000000 
 119.460000  1062.400000     0.000941  1147.819587     0.000000 
 119.480000  1040.000000     0.000962  1146.336814     0.000000 
 119.500000  1017.600000     0.000983  1143.223807     0.000000 
 119.520000  1008.000000     0.000992  1138.535543     0.000000 
 119.540000   990.700000     0.001009  1132.362547     0.000000 
 119.560000   981.700000     0.001019  1124.817246     0.000000 
 119.580000   980.000000     0.001020  1116.030574     0.000000 
 119.600000   959.300000     0.001042  1106.146324     0.000000 
 119.620000   959.300000     0.001042  1095.315966     0.000000 
 119.640000   959.300000     0.001042  1083.694174     0.000000 
 119.660000   972.800000     0.001028  1071.435184     0.000000 
 119.680000   986.200000     0.001014  1058.689963     0.000000 
 119.700000   995.200000     0.001005  1045.604083     0.000000 
 119.720000  1013.100000     0.000987  1032.316174     0.000000 
 119.740000  1030.000000     0.000971  1018.956742     0.000000 
 119.760000  1044.500000     0.000957  1005.788672     0.000000 
 119.780000  1066.000000     0.000938   992.643219     0.000000 
 119.800000  1062.400000     0.000941   979.760360     0.000000 
 119.820000  1057.900000     0.000945   967.279946     0.000000 
 119.840000  1062.400000     0.000941   955.190364     0.000000 
 119.860000  1041.000000     0.000961   943.609109     0.000000 
 119.880000  1031.000000     0.000970   932.596994     0.000000 
 119.900000  1004.100000     0.000996   922.204874     0.000000 
 119.920000   977.200000     0.001023   912.474000     0.000000 
 119.940000   977.200000     0.001023   903.436485     0.000000 
 119.960000   959.300000     0.001042   895.115811     0.000000 
 119.980000   932.400000     0.001073   887.532558     0.000000 
 120.000000   914.500000     0.001093   880.684385     0.000000 
 120.020000   910.000000     0.001099   874.577918     0.000000 
 120.040000   904.000000     0.001106   869.208133     0.000000 
 120.060000   883.000000     0.001133   864.564604     0.000000 
 120.080000   878.600000     0.001138   860.687739     0.000000 
 120.100000   865.200000     0.001156   857.446408     0.000000 
 120.120000   861.000000     0.001161   854.872639     0.000000 
 120.140000   846.000000     0.001182   852.939427     0.000000 
 120.160000   842.800000     0.001187   851.619189     0.000000 
 120.180000   842.800000     0.001187   850.874494     0.000000 
 120.200000   842.800000     0.001187   850.684935     0.000000 
 120.220000   837.900000     0.001193   850.989306     0.000000 
 120.240000   851.700000     0.001174   851.760876     0.000000 
 120.260000   851.700000     0.001174   852.959146     0.000000 
 120.280000   848.300000     0.001179   854.542090     0.000000 
 120.300000   844.800000     0.001184   856.466266     0.000000 
 120.320000   844.000000     0.001185   858.686907     0.000000 
 120.340000   841.400000     0.001188   861.158035     0.000000 
 120.360000   824.100000     0.001213   863.832584     0.000000 
 120.380000   827.600000     0.001208   866.667955     0.000000 
 120.400000   831.000000     0.001203   869.604676     0.000000 
 120.420000   837.900000     0.001193   872.599028     0.000000 
 120.440000   848.300000     0.001179   875.601880     0.000000 
 120.460000   848.300000     0.001179   878.564522     0.000000 
 120.480000   831.000000     0.001203   881.439189     0.000000 
 120.500000   831.000000     0.001203   884.179635     0.000000 
 120.520000   837.900000     0.001193   886.741710     0.000000 
 120.540000   848.300000     0.001179   889.083942     0.000000 
 120.560000   848.300000     0.001179   891.019934     0.000000 
 120.580000   834.500000     0.001198   892.812139     0.000000 
 120.600000   834.500000     0.001198   894.281244     0.000000 
 120.620000   841.400000     0.001188   895.401403     0.000000 
 120.640000   855.200000     0.001169   896.152732     0.000000 
 120.660000   855.200000     0.001169   896.517992     0.000000 
 120.680000   848.300000     0.001179   896.488753     0.000000 
 120.700000   844.800000     0.001184   896.062062     0.000000 
 120.720000   834.500000     0.001198   895.241791     0.000000 
 120.740000   837.900000     0.001193   894.038828     0.000000 
 120.760000   844.800000     0.001184   892.471050     0.000000 
 120.780000   858.600000     0.001165   890.562987     0.000000 
 120.800000   859.000000     0.001164   888.345204     0.000000 
 120.820000   854.000000     0.001171   885.853412     0.000000 
 120.840000   848.300000     0.001179   883.127418     0.000000 
 120.860000   855.200000     0.001169   880.215261     0.000000 
 120.880000   858.000000     0.001166   876.894795     0.000000 
 120.900000   860.000000     0.001163   873.732153     0.000000 
 120.920000   855.000000     0.001170   870.343333     0.000000 
 120.940000   848.300000     0.001179   867.112251     0.000000 
 120.960000   843.000000     0.001186   863.913249     0.000000 
 120.980000   844.800000     0.001184   860.788279     0.000000 
 121.000000   858.600000     0.001165   857.797959     0.000000 
 121.020000   865.500000     0.001155   854.940038     0.000000 
 121.040000   851.700000     0.001174   852.271538     0.000000 
 121.060000   848.300000     0.001179   849.827439     0.000000 
 121.080000   855.200000     0.001169   847.641421     0.000000 
 121.100000   865.500000     0.001155   845.744714     0.000000 
 121.120000   865.500000     0.001155   844.168120     0.000000 
 121.140000   862.100000     0.001160   842.940871     0.000000 
 121.160000   848.300000     0.001179   842.091062     0.000000 
 121.180000   848.300000     0.001179   841.645753     0.000000 
 121.200000   851.700000     0.001174   841.674140     0.000000 
 121.220000   869.000000     0.001151   842.115419     0.000000 
 121.240000   865.500000     0.001155   843.037001     0.000000 
 121.260000   875.000000     0.001143   844.463206     0.000000 
 121.280000   858.600000     0.001165   846.415516     0.000000 
 121.300000   856.000000     0.001168   848.916620     0.000000 
 121.320000   848.300000     0.001179   851.987627     0.000000 
 121.340000   865.500000     0.001155   855.648645     0.000000 
 121.360000   869.000000     0.001151   859.925928     0.000000 
 121.380000   869.000000     0.001151   864.843895     0.000000 
 121.400000   857.200000     0.001167   870.383235     0.000000 
 121.420000   857.200000     0.001167   876.441409     0.000000 
 121.440000   861.000000     0.001161   883.307653     0.000000 
 121.460000   880.000000     0.001136   890.854860     0.000000 
 121.480000   880.000000     0.001136   898.878663     0.000000 
 121.500000   902.800000     0.001108   907.801495     0.000000 
 121.520000   902.800000     0.001108   917.415461     0.000000 
 121.540000   925.500000     0.001080   927.717105     0.000000 
 121.560000   948.300000     0.001055   938.699009     0.000000 
 121.580000   971.000000     0.001030   950.364910     0.000000 
 121.600000  1031.700000     0.000969   962.665944     0.000000 
 121.620000  1100.000000     0.000909   975.589419     0.000000 
 121.640000  1183.400000     0.000845   989.118442     0.000000 
 121.660000  1259.300000     0.000794  1003.212191     0.000000 
 121.680000  1320.000000     0.000758  1017.631977     0.000000 
 121.700000  1373.100000     0.000728  1032.724275     0.000000 
 121.720000  1441.400000     0.000694  1048.235156     0.000000 
 121.740000  1464.100000     0.000683  1064.101324     0.000000 
 121.760000  1472.000000     0.000679  1080.132840     0.000000 
 121.780000  1434.000000     0.000697  1096.491359     0.000000 
 121.800000  1380.700000     0.000724  1112.972977     0.000000 
 121.820000  1320.000000     0.000758  1129.488366     0.000000 
 121.840000  1282.100000     0.000780  1145.944312     0.000000 
 121.860000  1213.800000     0.000824  1162.226465     0.000000 
 121.880000  1130.300000     0.000885  1178.278516     0.000000 
 121.900000  1077.200000     0.000928  1193.989382     0.000000 
 121.920000   999.000000     0.001001  1209.272987     0.000000 
 121.940000   986.200000     0.001014  1224.051501     0.000000 
 121.960000   958.000000     0.001044  1238.257501     0.000000 
 121.980000   963.400000     0.001038  1251.835372     0.000000 
 122.000000   952.000000     0.001050  1264.741917     0.000000 
 122.020000   978.600000     0.001022  1276.945993     0.000000 
 122.040000  1009.000000     0.000991  1288.427357     0.000000 
 122.060000  1069.700000     0.000935  1299.174897     0.000000 
 122.080000  1130.300000     0.000885  1309.184616     0.000000 
 122.100000  1213.800000     0.000824  1318.457674     0.000000 
 122.120000  1304.800000     0.000766  1326.998865     0.000000 
 122.140000  1403.400000     0.000713  1334.815790     0.000000 
 122.160000  1532.400000     0.000653  1341.918880     0.000000 
 122.180000  1608.300000     0.000622  1348.322130     0.000000 
 122.200000  1684.100000     0.000594  1354.044590     0.000000 
 122.220000  1722.100000     0.000581  1359.112073     0.000000 
 122.240000  1723.000000     0.000580  1363.558983     0.000000 
 122.260000  1714.500000     0.000583  1367.429590     0.000000 
 122.280000  1673.000000     0.000598  1370.778655     0.000000 
 122.300000  1608.300000     0.000622  1373.671023     0.000000 
 122.320000  1549.000000     0.000646  1376.180197     0.000000 
 122.340000  1533.000000     0.000652  1378.385901     0.000000 
 122.360000  1502.100000     0.000666  1380.370964     0.000000 
 122.380000  1464.100000     0.000683  1382.217619     0.000000 
 122.400000  1492.000000     0.000670  1384.003830     0.000000 
 122.420000  1499.000000     0.000667  1385.799669     0.000000 
 122.440000  1528.000000     0.000654  1387.664156     0.000000 
 122.460000  1570.300000     0.000637  1389.642670     0.000000 
 122.480000  1619.000000     0.000618  1391.765042     0.000000 
 122.500000  1661.400000     0.000602  1394.044327     0.000000 
 122.520000  1676.600000     0.000596  1396.476374     0.000000 
 122.540000  1684.100000     0.000594  1399.040071     0.000000 
 122.560000  1670.000000     0.000599  1401.698337     0.000000 
 122.580000  1638.600000     0.000610  1404.399833     0.000000 
 122.600000  1570.300000     0.000637  1407.081274     0.000000 
 122.620000  1479.300000     0.000676  1409.670364     0.000000 
 122.640000  1388.300000     0.000720  1412.089044     0.000000 
 122.660000  1331.000000     0.000751  1414.257023     0.000000 
 122.680000  1330.000000     0.000752  1416.095130     0.000000 
 122.700000  1297.200000     0.000771  1417.528347     0.000000 
 122.720000  1251.700000     0.000799  1418.488118     0.000000 
 122.740000  1274.500000     0.000785  1418.913803     0.000000 
 122.760000  1259.300000     0.000794  1418.753153     0.000000 
 122.780000  1282.100000     0.000780  1417.961872     0.000000 
 122.800000  1289.700000     0.000775  1416.485491     0.000000 
 122.820000  1304.800000     0.000766  1414.325769     0.000000 
 122.840000  1327.600000     0.000753  1411.436908     0.000000 
 122.860000  1383.000000     0.000723  1407.792293     0.000000 
 122.880000  1437.000000     0.000696  1403.366684     0.000000 
 122.900000  1597.000000     0.000626  1398.136036     0.000000 
 122.920000  1729.700000     0.000578  1392.078264     0.000000 
 122.940000  1871.000000     0.000534  1385.099303     0.000000 
 122.960000  1972.400000     0.000507  1377.336600     0.000000 
 122.980000  2078.600000     0.000481  1368.708297     0.000000 
 123.000000  2154.500000     0.000464  1359.217603     0.000000 
 123.020000  2175.000000     0.000460  1348.878780     0.000000 
 123.040000  2142.000000     0.000467  1337.718159     0.000000 
 123.060000  2071.000000     0.000483  1325.774553     0.000000 
 123.080000  1949.700000     0.000513  1313.098898     0.000000 
 123.100000  1850.000000     0.000541  1299.753295     0.000000 
 123.120000  1665.000000     0.000601  1285.809643     0.000000 
 123.140000  1515.000000     0.000660  1271.348039     0.000000 
 123.160000  1395.900000     0.000716  1256.455099     0.000000 
 123.180000  1259.300000     0.000794  1241.222344     0.000000 
 123.200000  1168.300000     0.000856  1225.744750     0.000000 
 123.220000  1132.000000     0.000883  1210.119424     0.000000 
 123.240000  1062.100000     0.000942  1194.444421     0.000000 
 123.260000  1009.000000     0.000991  1178.817728     0.000000 
 123.280000   971.000000     0.001030  1163.277861     0.000000 
 123.300000   978.600000     0.001022  1148.036931     0.000000 
 123.320000   980.000000     0.001020  1133.128623     0.000000 
 123.340000  1001.000000     0.000999  1118.641960     0.000000 
 123.360000   993.800000     0.001006  1104.662086     0.000000 
 123.380000  1024.100000     0.000976  1091.269864     0.000000 
 123.400000  1056.000000     0.000947  1078.541596     0.000000 
 123.420000  1115.200000     0.000897  1066.548904     0.000000 
 123.440000  1137.900000     0.000879  1055.358706     0.000000 
 123.460000  1191.000000     0.000840  1045.033306     0.000000 
 123.480000  1256.000000     0.000796  1035.630556     0.000000 
 123.500000  1289.700000     0.000775  1027.204076     0.000000 
 123.520000  1320.000000     0.000758  1019.803513     0.000000 
 123.540000  1334.000000     0.000750  1013.474785     0.000000 
 123.560000  1320.000000     0.000758  1008.260358     0.000000 
 123.580000  1308.000000     0.000765  1004.199477     0.000000 
 123.600000  1282.100000     0.000780  1001.328382     0.000000 
 123.620000  1198.600000     0.000834   999.680485     0.000000 
 123.640000  1153.100000     0.000867   999.286511     0.000000 
 123.660000  1107.600000     0.000903  1000.174587     0.000000 
 123.680000  1080.000000     0.000926  1002.370289     0.000000 
 123.700000  1001.400000     0.000999  1005.896629     0.000000 
 123.720000   978.600000     0.001022  1010.773989     0.000000 
 123.740000   929.000000     0.001076  1017.019998     0.000000 
 123.760000   917.900000     0.001089  1024.649338     0.000000 
 123.780000   878.000000     0.001139  1033.673493     0.000000 
 123.800000   855.200000     0.001169  1044.100426     0.000000 
 123.820000   875.900000     0.001142  1055.934192     0.000000 
 123.840000   875.900000     0.001142  1069.174493     0.000000 
 123.860000   865.000000     0.001156  1083.816159     0.000000 
 123.880000   873.000000     0.001145  1099.844943     0.000000 
 123.900000   875.900000     0.001142  1117.251543     0.000000 
 123.920000   873.000000     0.001145  1136.008975     0.000000 
 123.940000   893.000000     0.001120  1156.086561     0.000000 
 123.960000   919.000000     0.001088  1177.445569     0.000000 
 123.980000   922.000000     0.001085  1200.038464     0.000000 
 124.000000   951.700000     0.001051  1223.808212     0.000000 
 124.020000   993.100000     0.001007  1248.687519     0.000000 
 124.040000  1034.000000     0.000967  1274.598187     0.000000 
 124.060000  1086.000000     0.000921  1301.447922     0.000000 
 124.080000  1137.900000     0.000879  1329.139857     0.000000 
 124.100000  1227.000000     0.000815  1357.557088     0.000000 
 124.120000  1302.000000     0.000768  1386.572532     0.000000 
 124.140000  1420.700000     0.000704  1416.046552     0.000000 
 124.160000  1548.000000     0.000646  1445.827444     0.000000 
 124.180000  1606.900000     0.000622  1475.752381     0.000000 
 124.200000  1662.100000     0.000602  1505.648959     0.000000 
 124.220000  1675.900000     0.000597  1535.337187     0.000000 
 124.240000  1655.200000     0.000604  1564.632207     0.000000 
 124.260000  1627.600000     0.000614  1593.300261     0.000000 
 124.280000  1565.500000     0.000639  1621.250439     0.000000 
 124.300000  1503.400000     0.000665  1648.255406     0.000000 
 124.320000  1469.000000     0.000681  1674.143514     0.000000 
 124.340000  1434.500000     0.000697  1698.753116     0.000000 
 124.360000  1420.000000     0.000704  1721.939396     0.000000 
 124.380000  1434.500000     0.000697  1743.568475     0.000000 
 124.400000  1489.700000     0.000671  1763.522337     0.000000 
 124.420000  1537.900000     0.000650  1781.696911     0.000000 
 124.440000  1634.500000     0.000612  1798.000674     0.000000 
 124.460000  1696.600000     0.000589  1812.352880     0.000000 
 124.480000  1793.100000     0.000558  1824.681722     0.000000 
 124.500000  1851.000000     0.000540  1834.922875     0.000000 
 124.520000  1910.300000     0.000523  1843.018672     0.000000 
 124.540000  1951.700000     0.000512  1848.918077     0.000000 
 124.560000  1977.000000     0.000506  1852.577824     0.000000 
 124.580000  1993.100000     0.000502  1853.962316     0.000000 
 124.600000  1986.200000     0.000503  1853.054019     0.000000 
 124.620000  1965.500000     0.000509  1849.845298     0.000000 
 124.640000  1924.100000     0.000520  1844.349333     0.000000 
 124.660000  1896.600000     0.000527  1836.601266     0.000000 
 124.680000  1834.500000     0.000545  1826.660086     0.000000 
 124.700000  1772.400000     0.000564  1814.612121     0.000000 
 124.720000  1720.000000     0.000581  1800.568005     0.000000 
 124.740000  1655.200000     0.000604  1784.663613     0.000000 
 124.760000  1620.700000     0.000617  1767.057141     0.000000 
 124.780000  1551.700000     0.000644  1747.925546     0.000000 
 124.800000  1475.900000     0.000678  1727.460289     0.000000 
 124.820000  1440.000000     0.000694  1705.862544     0.000000 
 124.840000  1367.000000     0.000732  1683.338315     0.000000 
 124.860000  1310.300000     0.000763  1660.093785     0.000000 
 124.880000  1289.700000     0.000775  1636.325215     0.000000 
 124.900000  1282.800000     0.000780  1612.238800     0.000000 
 124.920000  1289.700000     0.000775  1588.012609     0.000000 
 124.940000  1331.000000     0.000751  1563.817934     0.000000 
 124.960000  1357.000000     0.000737  1539.811946     0.000000 
 124.980000  1372.400000     0.000729  1516.136965     0.000000 
 125.000000  1413.800000     0.000707  1492.920116     0.000000 
 125.020000  1469.000000     0.000681  1470.273529     0.000000 
 125.040000  1489.700000     0.000671  1448.291439     0.000000 
 125.060000  1503.400000     0.000665  1427.064096     0.000000 
 125.080000  1503.400000     0.000665  1406.658636     0.000000 
 125.100000  1535.000000     0.000651  1387.133131     0.000000 
 125.120000  1510.300000     0.000662  1368.534053     0.000000 
 125.140000  1489.700000     0.000671  1350.896951     0.000000 
 125.160000  1462.100000     0.000684  1334.247132     0.000000 
 125.180000  1448.300000     0.000690  1318.600221     0.000000 
 125.200000  1406.900000     0.000711  1303.940786     0.000000 
 125.220000  1351.700000     0.000740  1290.310583     0.000000 
 125.240000  1296.600000     0.000771  1277.677413     0.000000 
 125.260000  1255.200000     0.000797  1266.023641     0.000000 
 125.280000  1193.100000     0.000838  1255.324959     0.000000 
 125.300000  1165.500000     0.000858  1245.551054     0.000000 
 125.320000  1158.600000     0.000863  1236.666742     0.000000 
 125.340000  1131.000000     0.000884  1228.633026     0.000000 
 125.360000  1126.000000     0.000888  1221.408270     0.000000 
 125.380000  1110.300000     0.000901  1214.949459     0.000000 
 125.400000  1089.700000     0.000918  1209.213486     0.000000 
 125.420000  1096.600000     0.000912  1204.158393     0.000000 
 125.440000  1096.600000     0.000912  1199.744483     0.000000 
 125.460000  1089.700000     0.000918  1195.935281     0.000000 
 125.480000  1110.300000     0.000901  1192.648405     0.000000 
 125.500000  1089.700000     0.000918  1189.955409     0.000000 
 125.520000  1066.000000     0.000938  1187.782388     0.000000 
 125.540000  1071.000000     0.000934  1186.109597     0.000000 
 125.560000  1096.600000     0.000912  1184.842400     0.000000 
 125.580000  1096.600000     0.000912  1184.124930     0.000000 
 125.600000  1087.000000     0.000920  1183.867051     0.000000 
 125.620000  1085.000000     0.000922  1184.058455     0.000000 
 125.640000  1096.600000     0.000912  1184.688816     0.000000 
 125.660000  1106.000000     0.000904  1185.746824     0.000000 
 125.680000  1136.600000     0.000880  1187.219306     0.000000 
 125.700000  1154.000000     0.000867  1189.090475     0.000000 
 125.720000  1197.200000     0.000835  1191.318454     0.000000 
 125.740000  1246.900000     0.000802  1193.926049     0.000000 
 125.760000  1286.000000     0.000778  1196.863249     0.000000 
 125.780000  1368.300000     0.000731  1200.098408     0.000000 
 125.800000  1395.000000     0.000717  1203.595157     0.000000 
 125.820000  1441.000000     0.000694  1207.312366     0.000000 
 125.840000  1462.100000     0.000684  1211.124845     0.000000 
 125.860000  1460.000000     0.000685  1215.141435     0.000000 
 125.880000  1447.000000     0.000691  1219.213952     0.000000 
 125.900000  1406.900000     0.000711  1223.293114     0.000000 
 125.920000  1358.000000     0.000736  1227.344782     0.000000 
 125.940000  1302.100000     0.000768  1231.286887     0.000000 
 125.960000  1246.900000     0.000802  1235.057062     0.000000 
 125.980000  1208.300000     0.000828  1238.593561     0.000000 
 126.000000  1183.000000     0.000845  1241.819869     0.000000 
 126.020000  1167.000000     0.000857  1244.712116     0.000000 
 126.040000  1158.600000     0.000863  1247.200429     0.000000 
 126.060000  1158.600000     0.000863  1249.235051     0.000000 
 126.080000  1157.000000     0.000864  1250.774890     0.000000 
 126.100000  1175.200000     0.000851  1251.781057     0.000000 
 126.120000  1198.000000     0.000835  1252.221626     0.000000 
 126.140000  1263.400000     0.000792  1252.071399     0.000000 
 126.160000  1329.700000     0.000752  1251.311150     0.000000 
 126.180000  1373.800000     0.000728  1249.855491     0.000000 
 126.200000  1429.000000     0.000700  1247.845749     0.000000 
 126.220000  1467.600000     0.000681  1245.210765     0.000000 
 126.240000  1517.200000     0.000659  1241.960540     0.000000 
 126.260000  1533.800000     0.000652  1238.112612     0.000000 
 126.280000  1528.300000     0.000654  1233.679304     0.000000 
 126.300000  1533.800000     0.000652  1228.722584     0.000000 
 126.320000  1533.800000     0.000652  1223.268708     0.000000 
 126.340000  1511.000000     0.000662  1217.364694     0.000000 
 126.360000  1490.000000     0.000671  1211.062841     0.000000 
 126.380000  1467.600000     0.000681  1204.419543     0.000000 
 126.400000  1434.500000     0.000697  1197.494022     0.000000 
 126.420000  1379.300000     0.000725  1190.347103     0.000000 
 126.440000  1343.000000     0.000745  1183.040112     0.000000 
 126.460000  1302.100000     0.000768  1175.633898     0.000000 
 126.480000  1257.900000     0.000795  1168.169216     0.000000 
 126.500000  1224.800000     0.000816  1160.741726     0.000000 
 126.520000  1176.000000     0.000850  1153.388124     0.000000 
 126.540000  1153.100000     0.000867  1146.161657     0.000000 
 126.560000  1120.000000     0.000893  1139.113028     0.000000 
 126.580000  1097.900000     0.000911  1132.290331     0.000000 
 126.600000  1092.400000     0.000915  1125.739009     0.000000 
 126.620000  1092.400000     0.000915  1119.501784     0.000000 
 126.640000  1114.500000     0.000897  1113.618553     0.000000 
 126.660000  1114.500000     0.000897  1108.126239     0.000000 
 126.680000  1131.000000     0.000884  1103.058583     0.000000 
 126.700000  1147.600000     0.000871  1098.445890     0.000000 
 126.720000  1169.700000     0.000855  1094.314751     0.000000 
 126.740000  1202.800000     0.000831  1090.687762     0.000000 
 126.760000  1230.300000     0.000813  1087.583256     0.000000 
 126.780000  1241.400000     0.000806  1085.015073     0.000000 
 126.800000  1257.900000     0.000795  1082.992389     0.000000 
 126.820000  1257.900000     0.000795  1081.519614     0.000000 
 126.840000  1246.900000     0.000802  1080.596392     0.000000 
 126.860000  1237.000000     0.000808  1080.217662     0.000000 
 126.880000  1235.000000     0.000810  1080.373871     0.000000 
 126.900000  1202.800000     0.000831  1081.051241     0.000000 
 126.920000  1197.200000     0.000835  1082.232184     0.000000 
 126.940000  1180.700000     0.000847  1083.895761     0.000000 
 126.960000  1147.600000     0.000871  1086.018257     0.000000 
 126.980000  1147.600000     0.000871  1088.573780     0.000000 
 127.000000  1120.000000     0.000893  1091.534879     0.000000 
 127.020000  1103.400000     0.000906  1094.873146     0.000000 
 127.040000  1093.000000     0.000915  1098.559713     0.000000 
 127.060000  1075.900000     0.000929  1102.565675     0.000000 
 127.080000  1064.800000     0.000939  1106.862150     0.000000 
 127.100000  1056.000000     0.000947  1111.421142     0.000000 
 127.120000  1037.600000     0.000964  1116.214289     0.000000 
 127.140000  1043.400000     0.000958  1121.213418     0.000000 
 127.160000  1038.000000     0.000963  1126.389972     0.000000 
 127.180000  1061.000000     0.000943  1131.714558     0.000000 
 127.200000  1096.200000     0.000912  1137.156460     0.000000 
 127.220000  1131.400000     0.000884  1142.683156     0.000000 
 127.240000  1138.000000     0.000879  1148.259891     0.000000 
 127.260000  1194.000000     0.000838  1153.849352     0.000000 
 127.280000  1225.200000     0.000816  1159.411460     0.000000 
 127.300000  1248.600000     0.000801  1164.903331     0.000000 
 127.320000  1272.100000     0.000786  1170.279377     0.000000 
 127.340000  1279.000000     0.000782  1175.491625     0.000000 
 127.360000  1289.700000     0.000775  1180.490188     0.000000 
 127.380000  1280.000000     0.000781  1185.223916     0.000000 
 127.400000  1266.200000     0.000790  1189.641236     0.000000 
 127.420000  1254.000000     0.000797  1193.691101     0.000000 
 127.440000  1260.000000     0.000794  1197.324057     0.000000 
 127.460000  1248.600000     0.000801  1200.493381     0.000000 
 127.480000  1240.000000     0.000806  1203.156232     0.000000 
 127.500000  1263.000000     0.000792  1205.274764     0.000000 
 127.520000  1277.900000     0.000783  1206.817158     0.000000 
 127.540000  1277.900000     0.000783  1207.758551     0.000000 
 127.560000  1277.900000     0.000783  1208.081787     0.000000 
 127.580000  1251.000000     0.000799  1207.778018     0.000000 
 127.600000  1248.600000     0.000801  1206.847101     0.000000 
 127.620000  1236.000000     0.000809  1205.297815     0.000000 
 127.640000  1217.000000     0.000822  1203.127288     0.000000 
 127.660000  1190.000000     0.000840  1200.324326     0.000000 
 127.680000  1160.700000     0.000862  1197.060909     0.000000 
 127.700000  1126.000000     0.000888  1193.300227     0.000000 
 127.720000  1113.800000     0.000898  1189.091449     0.000000 
 127.740000  1102.100000     0.000907  1184.489584     0.000000 
 127.760000  1090.300000     0.000917  1179.554338     0.000000 
 127.780000  1078.600000     0.000927  1174.308879     0.000000 
 127.800000  1077.000000     0.000929  1168.898928     0.000000 
 127.820000  1102.100000     0.000907  1163.350779     0.000000 
 127.840000  1096.200000     0.000912  1157.730829     0.000000 
 127.860000  1113.000000     0.000898  1152.104316     0.000000 
 127.880000  1131.400000     0.000884  1146.534405     0.000000 
 127.900000  1150.000000     0.000870  1141.081429     0.000000 
 127.920000  1120.000000     0.000893  1135.790484     0.000000 
 127.940000  1137.200000     0.000879  1130.738114     0.000000 
 127.960000  1154.800000     0.000866  1125.961186     0.000000 
 127.980000  1160.700000     0.000862  1121.503883     0.000000 
 128.000000  1166.600000     0.000857  1117.405797     0.000000 
 128.020000  1190.000000     0.000840  1113.701864     0.000000 
 128.040000  1190.000000     0.000840  1110.422386     0.000000 
 128.060000  1231.000000     0.000812  1107.593119     0.000000 
 128.080000  1272.100000     0.000786  1105.235348     0.000000 
 128.100000  1324.800000     0.000755  1103.366002     0.000000 
 128.120000  1383.400000     0.000723  1101.997750     0.000000 
 128.140000  1450.000000     0.000690  1101.139084     0.000000 
 128.160000  1506.600000     0.000664  1100.794377     0.000000 
 128.180000  1554.000000     0.000644  1100.963905     0.000000 
 128.200000  1617.900000     0.000618  1101.593245     0.000000 
 128.220000  1647.200000     0.000607  1102.775870     0.000000 
 128.240000  1659.000000     0.000603  1104.448861     0.000000 
 128.260000  1664.800000     0.000601  1106.595906     0.000000 
 128.280000  1647.200000     0.000607  1109.196467     0.000000 
 128.300000  1629.700000     0.000614  1112.225766     0.000000 
 128.320000  1612.100000     0.000620  1115.654851     0.000000 
 128.340000  1530.000000     0.000654  1119.450706     0.000000 
 128.360000  1459.000000     0.000685  1123.576423     0.000000 
 128.380000  1324.800000     0.000755  1127.991498     0.000000 
 128.400000  1260.300000     0.000793  1132.652191     0.000000 
 128.420000  1201.700000     0.000832  1137.512010     0.000000 
 128.440000  1154.800000     0.000866  1142.522288     0.000000 
 128.460000  1113.800000     0.000898  1147.632861     0.000000 
 128.480000  1069.000000     0.000935  1152.792838     0.000000 
 128.500000  1043.400000     0.000958  1157.951442     0.000000 
 128.520000  1032.000000     0.000969  1163.058883     0.000000 
 128.540000  1008.300000     0.000992  1168.067255     0.000000 
 128.560000  1014.100000     0.000986  1172.931403     0.000000 
 128.580000  1008.300000     0.000992  1177.609732     0.000000 
 128.600000   970.000000     0.001031  1182.064883     0.000000 
 128.620000  1002.400000     0.000998  1186.264313     0.000000 
 128.640000  1025.900000     0.000975  1190.180666     0.000000 
 128.660000  1025.900000     0.000975  1193.791976     0.000000 
 128.680000  1061.000000     0.000943  1197.081666     0.000000 
 128.700000  1090.300000     0.000917  1200.038381     0.000000 
 128.720000  1102.000000     0.000907  1202.655630     0.000000 
 128.740000  1178.300000     0.000849  1204.931354     0.000000 
 128.760000  1228.000000     0.000814  1206.867353     0.000000 
 128.780000  1304.000000     0.000767  1208.468773     0.000000 
 128.800000  1342.400000     0.000745  1209.743538     0.000000 
 128.820000  1386.000000     0.000722  1210.701909     0.000000 
 128.840000  1436.200000     0.000696  1211.356134     0.000000 
 128.860000  1471.400000     0.000680  1211.720224     0.000000 
 128.880000  1518.000000     0.000659  1211.809867     0.000000 
 128.900000  1565.200000     0.000639  1211.642452     0.000000 
 128.920000  1582.800000     0.000632  1211.237190     0.000000 
 128.940000  1589.000000     0.000629  1210.615300     0.000000 
 128.960000  1588.600000     0.000629  1209.800197     0.000000 
 128.980000  1565.200000     0.000639  1208.817672     0.000000 
 129.000000  1530.000000     0.000654  1207.695987     0.000000 
 129.020000  1489.000000     0.000672  1206.465959     0.000000 
 129.040000  1436.200000     0.000696  1205.160826     0.000000 
 129.060000  1381.000000     0.000724  1203.816125     0.000000 
 129.080000  1307.200000     0.000765  1202.469371     0.000000 
 129.100000  1248.600000     0.000801  1201.159739     0.000000 
 129.120000  1186.000000     0.000843  1199.927593     0.000000 
 129.140000  1160.700000     0.000862  1198.814000     0.000000 
 129.160000  1119.700000     0.000893  1197.860183     0.000000 
 129.180000  1084.500000     0.000922  1197.106927     0.000000 
 129.200000  1037.600000     0.000964  1196.593988     0.000000 
 129.220000  1020.000000     0.000980  1196.352265     0.000000 
 129.240000   996.600000     0.001003  1196.432011     0.000000 
 129.260000   996.600000     0.001003  1196.858941     0.000000 
 129.280000   990.700000     0.001009  1197.662524     0.000000 
 129.300000  1002.400000     0.000998  1198.868202     0.000000 
 129.320000  1002.400000     0.000998  1200.496884     0.000000 
 129.340000  1020.000000     0.000980  1202.564494     0.000000 
 129.360000  1039.000000     0.000962  1205.081581     0.000000 
 129.380000  1059.000000     0.000944  1208.053009     0.000000 
 129.400000  1096.200000     0.000912  1211.477696     0.000000 
 129.420000  1140.000000     0.000877  1215.348463     0.000000 
 129.440000  1187.000000     0.000842  1219.651929     0.000000 
 129.460000  1257.000000     0.000796  1224.247283     0.000000 
 129.480000  1286.000000     0.000778  1229.351635     0.000000 
 129.500000  1348.300000     0.000742  1234.811480     0.000000 
 129.520000  1377.600000     0.000726  1240.589143     0.000000 
 129.540000  1412.800000     0.000708  1246.641375     0.000000 
 129.560000  1424.500000     0.000702  1252.908125     0.000000 
 129.580000  1424.500000     0.000702  1259.359249     0.000000 
 129.600000  1406.900000     0.000711  1265.925503     0.000000 
 129.620000  1385.000000     0.000722  1272.545483     0.000000 
 129.640000  1330.700000     0.000751  1279.154675     0.000000 
 129.660000  1295.500000     0.000772  1285.686117     0.000000 
 129.680000  1254.500000     0.000797  1292.071211     0.000000 
 129.700000  1219.300000     0.000820  1298.240453     0.000000 
 129.720000  1201.700000     0.000832  1304.124295     0.000000 
 129.740000  1172.400000     0.000853  1309.645531     0.000000 
 129.760000  1184.100000     0.000845  1314.753707     0.000000 
 129.780000  1201.700000     0.000832  1319.375363     0.000000 
 129.800000  1210.000000     0.000826  1323.448397     0.000000 
 129.820000  1240.000000     0.000806  1326.914252     0.000000 
 129.840000  1285.000000     0.000778  1329.718456     0.000000 
 129.860000  1351.000000     0.000740  1331.811168     0.000000 
 129.880000  1443.000000     0.000693  1333.147661     0.000000 
 129.900000  1494.800000     0.000669  1333.688855     0.000000 
 129.920000  1530.000000     0.000654  1333.401836     0.000000 
 129.940000  1553.400000     0.000644  1332.260473     0.000000 
 129.960000  1553.400000     0.000644  1330.245989     0.000000 
 129.980000  1524.100000     0.000656  1327.347592     0.000000 
 130.000000  1479.000000     0.000676  1323.563000     0.000000 
 130.020000  1453.800000     0.000688  1318.898925     0.000000 
 130.040000  1401.000000     0.000714  1313.371369     0.000000 
 130.060000  1336.600000     0.000748  1307.005681     0.000000 
 130.080000  1295.500000     0.000772  1299.836438     0.000000 
 130.100000  1232.000000     0.000812  1291.907015     0.000000 
 130.120000  1195.900000     0.000836  1283.268905     0.000000 
 130.140000  1166.600000     0.000857  1273.980845     0.000000 
 130.160000  1137.200000     0.000879  1264.107722     0.000000 
 130.180000  1096.200000     0.000912  1253.719412     0.000000 
 130.200000  1055.200000     0.000948  1242.888776     0.000000 
 130.220000  1031.700000     0.000969  1231.693386     0.000000 
 130.240000  1020.000000     0.000980  1220.209906     0.000000 
 130.260000  1008.300000     0.000992  1208.515996     0.000000 
 130.280000   994.000000     0.001006  1196.688590     0.000000 
 130.300000   985.000000     0.001015  1184.803072     0.000000 
 130.320000   967.200000     0.001034  1172.932622     0.000000 
 130.340000   968.000000     0.001033  1161.147630     0.000000 
 130.360000   984.800000     0.001015  1149.515285     0.000000 
 130.380000   990.700000     0.001009  1138.099235     0.000000 
 130.400000   997.000000     0.001003  1126.959348     0.000000 
 130.420000  1015.000000     0.000985  1116.151528     0.000000 
 130.440000  1037.600000     0.000964  1105.727601     0.000000 
 130.460000  1070.000000     0.000935  1095.735232     0.000000 
 130.480000  1110.000000     0.000901  1086.217888     0.000000 
 130.500000  1131.400000     0.000884  1077.214813     0.000000 
 130.520000  1157.000000     0.000864  1068.761035     0.000000 
 130.540000  1177.000000     0.000850  1060.887388     0.000000 
 130.560000  1172.400000     0.000853  1053.620541     0.000000 
 130.580000  1166.600000     0.000857  1046.983063     0.000000 
 130.600000  1149.000000     0.000870  1040.993470     0.000000 
 130.620000  1119.700000     0.000893  1035.666311     0.000000 
 130.640000  1090.300000     0.000917  1031.012241     0.000000 
 130.660000  1071.000000     0.000934  1027.038119     0.000000 
 130.680000  1055.200000     0.000948  1023.747104     0.000000 
 130.700000  1002.400000     0.000998  1021.138757     0.000000 
 130.720000   961.400000     0.001040  1019.209150     0.000000 
 130.740000   937.900000     0.001066  1017.950979     0.000000 
 130.760000   914.000000     0.001094  1017.351983     0.000000 
 130.780000   907.000000     0.001103  1017.401807     0.000000 
 130.800000   902.800000     0.001108  1018.081986     0.000000 
 130.820000   891.000000     0.001122  1019.372824     0.000000 
 130.840000   894.000000     0.001119  1021.251806     0.000000 
 130.860000   885.200000     0.001130  1023.693729     0.000000 
 130.880000   866.000000     0.001155  1026.656457     0.000000 
 130.900000   886.000000     0.001129  1030.138493     0.000000 
 130.920000   889.700000     0.001124  1034.092810     0.000000 
 130.940000   881.700000     0.001134  1038.484536     0.000000 
 130.960000   894.800000     0.001118  1043.276617     0.000000 
 130.980000   917.000000     0.001091  1048.429915     0.000000 
 131.000000   925.900000     0.001080  1053.903269     0.000000 
 131.020000   941.400000     0.001062  1059.653569     0.000000 
 131.040000   972.400000     0.001028  1065.635798     0.000000 
 131.060000  1033.000000     0.000968  1071.803119     0.000000 
 131.080000  1050.000000     0.000952  1078.106926     0.000000 
 131.100000  1081.000000     0.000925  1084.482550     0.000000 
 131.120000  1148.000000     0.000871  1090.907046     0.000000 
 131.140000  1204.000000     0.000831  1097.297491     0.000000 
 131.160000  1241.000000     0.000806  1103.630209     0.000000 
 131.180000  1293.100000     0.000773  1109.834676     0.000000 
 131.200000  1337.000000     0.000748  1115.855217     0.000000 
 131.220000  1375.000000     0.000727  1121.636118     0.000000 
 131.240000  1359.000000     0.000736  1127.122155     0.000000 
 131.260000  1391.400000     0.000719  1132.259165     0.000000 
 131.280000  1375.900000     0.000727  1136.994732     0.000000 
 131.300000  1370.700000     0.000730  1141.278885     0.000000 
 131.320000  1386.200000     0.000721  1145.064825     0.000000 
 131.340000  1396.600000     0.000716  1148.309659     0.000000 
 131.360000  1423.000000     0.000703  1150.975074     0.000000 
 131.380000  1414.000000     0.000707  1153.027974     0.000000 
 131.400000  1412.100000     0.000708  1154.440986     0.000000 
 131.420000  1401.700000     0.000713  1155.192866     0.000000 
 131.440000  1370.700000     0.000730  1155.268753     0.000000 
 131.460000  1360.000000     0.000735  1154.660286     0.000000 
 131.480000  1298.300000     0.000770  1153.365551     0.000000 
 131.500000  1256.000000     0.000796  1151.388899     0.000000 
 131.520000  1210.300000     0.000826  1148.740627     0.000000 
 131.540000  1127.600000     0.000887  1145.436572     0.000000 
 131.560000  1091.400000     0.000916  1141.497566     0.000000 
 131.580000  1029.300000     0.000972  1136.948901     0.000000 
 131.600000  1016.000000     0.000984  1131.819725     0.000000 
 131.620000   987.900000     0.001012  1126.142427     0.000000 
 131.640000   967.200000     0.001034  1119.952068     0.000000 
 131.660000   981.000000     0.001019  1113.285818     0.000000 
 131.680000   972.400000     0.001028  1106.182448     0.000000 
 131.700000   973.000000     0.001028  1098.681875     0.000000 
 131.720000   993.100000     0.001007  1090.824762     0.000000 
 131.740000  1013.800000     0.000986  1082.652138     0.000000 
 131.760000  1045.000000     0.000957  1074.205112     0.000000 
 131.780000  1050.000000     0.000952  1065.524568     0.000000 
 131.800000  1081.000000     0.000925  1056.650928     0.000000 
 131.820000  1101.700000     0.000908  1047.623922     0.000000 
 131.840000  1112.100000     0.000899  1038.482378     0.000000 
 131.860000  1101.700000     0.000908  1029.264014     0.000000 
 131.880000  1101.700000     0.000908  1020.005256     0.000000 
 131.900000  1117.200000     0.000895  1010.741067     0.000000 
 131.920000  1112.100000     0.000899  1001.504776     0.000000 
 131.940000  1132.800000     0.000883   992.327935     0.000000 
 131.960000  1108.000000     0.000903   983.240200     0.000000 
 131.980000  1123.000000     0.000890   974.269204     0.000000 
 132.000000  1119.000000     0.000894   965.440493     0.000000 
 132.020000  1132.800000     0.000883   956.777444     0.000000 
 132.040000  1127.600000     0.000887   948.301245     0.000000 
 132.060000  1117.200000     0.000895   940.030871     0.000000 
 132.080000  1106.900000     0.000903   931.983095     0.000000 
 132.100000  1086.200000     0.000921   924.172510     0.000000 
 132.120000  1042.000000     0.000960   916.611582     0.000000 
 132.140000  1029.000000     0.000972   909.310709     0.000000 
 132.160000   983.000000     0.001017   902.278299     0.000000 
 132.180000   962.000000     0.001040   895.520850     0.000000 
 132.200000   945.000000     0.001058   889.043059     0.000000 
 132.220000   913.000000     0.001095   882.847913     0.000000 
 132.240000   896.000000     0.001116   876.936803     0.000000 
 132.260000   887.500000     0.001127   871.309639     0.000000 
 132.280000   884.500000     0.001131   865.964967     0.000000 
 132.300000   869.000000     0.001151   860.900073     0.000000 
 132.320000   863.800000     0.001158   856.111117     0.000000 
 132.340000   858.600000     0.001165   851.593233     0.000000 
 132.360000   863.800000     0.001158   847.340653     0.000000 
 132.380000   848.300000     0.001179   843.346810     0.000000 
 132.400000   843.100000     0.001186   839.604449     0.000000 
 132.420000   840.100000     0.001190   836.105730     0.000000 
 132.440000   849.000000     0.001178   832.842318     0.000000 
 132.460000   858.600000     0.001165   829.805489     0.000000 
 132.480000   853.400000     0.001172   826.986208     0.000000 
 132.500000   848.300000     0.001179   824.375217     0.000000 
 132.520000   848.300000     0.001179   821.963103     0.000000 
 132.540000   862.000000     0.001160   819.740375     0.000000 
 132.560000   856.000000     0.001168   817.697526     0.000000 
 132.580000   848.300000     0.001179   815.825091     0.000000 
 132.600000   837.900000     0.001193   814.113695     0.000000 
 132.620000   816.200000     0.001225   812.554106     0.000000 
 132.640000   816.200000     0.001225   811.137272     0.000000 
 132.660000   800.700000     0.001249   809.853725     0.000000 
 132.680000   797.600000     0.001254   808.696120     0.000000 
 132.700000   800.700000     0.001249   807.655505     0.000000 
 132.720000   808.000000     0.001238   806.723848     0.000000 
 132.740000   809.000000     0.001236   805.806501     0.000000 
 132.760000   806.000000     0.001241   805.070238     0.000000 
 132.780000   797.600000     0.001254   804.420751     0.000000 
 132.800000   791.400000     0.001264   803.851329     0.000000 
 132.820000   788.300000     0.001269   803.355619     0.000000 
 132.840000   794.500000     0.001259   802.927631     0.000000 
 132.860000   800.700000     0.001249   802.561753     0.000000 
 132.880000   803.800000     0.001244   802.252754     0.000000 
 132.900000   805.700000     0.001241   801.995791     0.000000 
 132.920000   794.500000     0.001259   801.786421     0.000000 
 132.940000   780.200000     0.001282   801.620605     0.000000 
 132.960000   788.300000     0.001269   801.494570     0.000000 
 132.980000   784.600000     0.001275   801.405399     0.000000 
 133.000000   790.600000     0.001265   801.350158     0.000000 
 133.020000   787.000000     0.001271   801.326482     0.000000 
 133.040000   775.900000     0.001289   801.332418     0.000000 
 133.060000   779.000000     0.001284   801.366431     0.000000 
 133.080000   790.400000     0.001265   801.427389     0.000000 
 133.100000   794.500000     0.001259   801.514543     0.000000 
 133.120000   791.000000     0.001264   801.521398     0.000000 
 133.140000   809.700000     0.001235   801.660534     0.000000 
 133.160000   806.900000     0.001239   801.825725     0.000000 
 133.180000   801.700000     0.001247   802.017534     0.000000 
 133.200000   791.400000     0.001264   802.236786     0.000000 
 133.220000   788.300000     0.001269   802.484529     0.000000 
 133.240000   791.300000     0.001264   802.762005     0.000000 
 133.260000   800.700000     0.001249   803.070621     0.000000 
 133.280000   794.500000     0.001259   803.411922     0.000000 
 133.300000   813.100000     0.001230   803.787562     0.000000 
 133.320000   810.000000     0.001235   804.199286     0.000000 
 133.340000   819.300000     0.001221   804.648907     0.000000 
 133.360000   816.200000     0.001225   805.138290     0.000000 
 133.380000   800.700000     0.001249   805.669335     0.000000 
 133.400000   797.600000     0.001254   806.243969     0.000000 
 133.420000   812.900000     0.001230   806.864137     0.000000 
 133.440000   818.000000     0.001222   807.531788     0.000000 
 133.460000   810.200000     0.001234   808.248873     0.000000 
 133.480000   806.900000     0.001239   809.017340     0.000000 
 133.500000   809.900000     0.001235   809.839125     0.000000 
 133.520000   813.300000     0.001230   810.716150     0.000000 
 133.540000   816.200000     0.001225   811.650318     0.000000 
 133.560000   819.200000     0.001221   812.643509     0.000000 
 133.580000   818.300000     0.001222   813.697572     0.000000 
 133.600000   820.000000     0.001220   814.814323     0.000000 
 133.620000   814.000000     0.001229   815.995544     0.000000 
 133.640000   811.000000     0.001233   817.242972     0.000000 
 133.660000   819.000000     0.001221   818.558300     0.000000 
 133.680000   821.000000     0.001218   819.933419     0.000000 
 133.700000   827.600000     0.001208   821.389479     0.000000 
 133.720000   830.900000     0.001204   822.819348     0.000000 
 133.740000   817.700000     0.001223   824.422682     0.000000 
 133.760000   819.700000     0.001220   826.101699     0.000000 
 133.780000   830.900000     0.001204   827.857840     0.000000 
 133.800000   821.000000     0.001218   829.692524     0.000000 
 133.820000   825.900000     0.001211   831.607164     0.000000 
 133.840000   821.000000     0.001218   833.603179     0.000000 
 133.860000   830.200000     0.001205   835.682016     0.000000 
 133.880000   837.500000     0.001194   837.845173     0.000000 
 133.900000   834.200000     0.001199   840.094223     0.000000 
 133.920000   817.700000     0.001223   842.430842     0.000000 
 133.940000   824.300000     0.001213   844.856841     0.000000 
 133.960000   827.600000     0.001208   847.374196     0.000000 
 133.980000   827.600000     0.001208   849.985075     0.000000 
 134.000000   837.500000     0.001194   852.691874     0.000000 
 134.020000   847.200000     0.001180   855.497236     0.000000 
 134.040000   830.500000     0.001204   858.404083     0.000000 
 134.060000   837.500000     0.001194   861.415624     0.000000 
 134.080000   832.800000     0.001201   864.535368     0.000000 
 134.100000   831.000000     0.001203   867.670377     0.000000 
 134.120000   840.000000     0.001190   871.018627     0.000000 
 134.140000   854.500000     0.001170   874.487428     0.000000 
 134.160000   876.200000     0.001141   878.081475     0.000000 
 134.180000   891.000000     0.001122   881.805733     0.000000 
 134.200000   896.000000     0.001116   885.665404     0.000000 
 134.220000   912.000000     0.001096   889.665917     0.000000 
 134.240000   948.600000     0.001054   893.812900     0.000000 
 134.260000   954.000000     0.001048   898.112161     0.000000 
 134.280000   970.300000     0.001031   902.569663     0.000000 
 134.300000   993.000000     0.001007   907.191498     0.000000 
 134.320000  1013.800000     0.000986   911.960664     0.000000 
 134.340000  1013.800000     0.000986   916.929924     0.000000 
 134.360000  1035.500000     0.000966   922.082306     0.000000 
 134.380000  1060.000000     0.000943   927.424123     0.000000 
 134.400000  1042.800000     0.000959   932.951359     0.000000 
 134.420000  1028.300000     0.000972   938.690765     0.000000 
 134.440000  1028.300000     0.000972   944.638007     0.000000 
 134.460000  1006.600000     0.000993   950.798828     0.000000 
 134.480000   990.000000     0.001010   957.178643     0.000000 
 134.500000   992.100000     0.001008   963.782470     0.000000 
 134.520000   948.600000     0.001054   970.614848     0.000000 
 134.540000   941.400000     0.001062   977.679742     0.000000 
 134.560000   926.900000     0.001079   984.980478     0.000000 
 134.580000   916.400000     0.001091   992.519651     0.000000 
 134.600000   922.400000     0.001084  1000.299066     0.000000 
 134.620000   911.200000     0.001097  1008.319651     0.000000 
 134.640000   909.200000     0.001100  1016.581401     0.000000 
 134.660000   915.200000     0.001093  1025.083316     0.000000 
 134.680000   909.200000     0.001100  1033.823348     0.000000 
 134.700000   910.000000     0.001099  1042.798336     0.000000 
 134.720000   941.400000     0.001062  1052.003976     0.000000 
 134.740000   955.900000     0.001046  1061.434775     0.000000 
 134.760000   992.100000     0.001008  1071.084030     0.000000 
 134.780000  1035.500000     0.000966  1080.943813     0.000000 
 134.800000  1079.000000     0.000927  1091.004962     0.000000 
 134.820000  1158.600000     0.000863  1101.257103     0.000000 
 134.840000  1246.000000     0.000803  1111.688678     0.000000 
 134.860000  1346.900000     0.000742  1122.287002     0.000000 
 134.880000  1461.000000     0.000684  1133.038320     0.000000 
 134.900000  1529.000000     0.000654  1143.927890     0.000000 
 134.920000  1666.000000     0.000600  1154.940098     0.000000 
 134.940000  1792.000000     0.000558  1166.058527     0.000000 
 134.960000  1907.000000     0.000524  1177.266109     0.000000 
 134.980000  1984.100000     0.000504  1188.545203     0.000000 
 135.000000  2056.600000     0.000486  1199.877701     0.000000 
 135.020000  2063.800000     0.000485  1211.245138     0.000000 
 135.040000  2054.000000     0.000487  1222.628754     0.000000 
 135.060000  2013.100000     0.000497  1234.009569     0.000000 
 135.080000  1890.000000     0.000529  1245.368411     0.000000 
 135.100000  1811.000000     0.000552  1256.685978     0.000000 
 135.120000  1712.000000     0.000584  1267.941222     0.000000 
 135.140000  1556.900000     0.000642  1279.117929     0.000000 
 135.160000  1412.000000     0.000708  1290.194935     0.000000 
 135.180000  1288.000000     0.000776  1301.152757     0.000000 
 135.200000  1201.000000     0.000833  1311.972048     0.000000 
 135.220000  1145.000000     0.000873  1322.633753     0.000000 
 135.240000  1079.000000     0.000927  1333.119246     0.000000 
 135.260000  1021.000000     0.000979  1343.410588     0.000000 
 135.280000   992.100000     0.001008  1353.490789     0.000000 
 135.300000   955.900000     0.001046  1363.344090     0.000000 
 135.320000   912.400000     0.001096  1372.956257     0.000000 
 135.340000   923.000000     0.001083  1382.314939     0.000000 
 135.360000   918.400000     0.001089  1391.409856     0.000000 
 135.380000   922.400000     0.001084  1400.233123     0.000000 
 135.400000   919.400000     0.001088  1408.779367     0.000000 
 135.420000   934.100000     0.001071  1417.045815     0.000000 
 135.440000   950.000000     0.001053  1425.032285     0.000000 
 135.460000   966.000000     0.001035  1432.741052     0.000000 
 135.480000   982.000000     0.001018  1440.176646     0.000000 
 135.500000  1013.800000     0.000986  1447.345509     0.000000 
 135.520000  1050.000000     0.000952  1454.255596     0.000000 
 135.540000  1100.700000     0.000909  1460.915909     0.000000 
 135.560000  1137.000000     0.000880  1467.335994     0.000000 
 135.580000  1177.000000     0.000850  1473.525378     0.000000 
 135.600000  1213.000000     0.000824  1479.493030     0.000000 
 135.620000  1343.000000     0.000745  1485.246861     0.000000 
 135.640000  1425.000000     0.000702  1490.793217     0.000000 
 135.660000  1474.000000     0.000678  1496.136434     0.000000 
 135.680000  1570.000000     0.000637  1501.278503     0.000000 
 135.700000  1609.000000     0.000622  1506.218702     0.000000 
 135.720000  1628.000000     0.000614  1510.953386     0.000000 
 135.740000  1655.200000     0.000604  1515.475836     0.000000 
 135.760000  1655.200000     0.000604  1519.776176     0.000000 
 135.780000  1639.000000     0.000610  1523.841376     0.000000 
 135.800000  1661.000000     0.000602  1527.655323     0.000000 
 135.820000  1613.800000     0.000620  1531.199017     0.000000 
 135.840000  1563.000000     0.000640  1534.450828     0.000000 
 135.860000  1551.700000     0.000644  1537.386822     0.000000 
 135.880000  1524.100000     0.000656  1539.829376     0.000000 
 135.900000  1493.000000     0.000670  1542.055430     0.000000 
 135.920000  1482.800000     0.000674  1543.884643     0.000000 
 135.940000  1459.000000     0.000685  1545.288858     0.000000 
 135.960000  1489.700000     0.000671  1546.240336     0.000000 
 135.980000  1503.400000     0.000665  1546.712519     0.000000 
 136.000000  1531.000000     0.000653  1546.680694     0.000000 
 136.020000  1581.000000     0.000633  1546.102213     0.000000 
 136.040000  1689.000000     0.000592  1544.998828     0.000000 
 136.060000  1740.000000     0.000575  1543.334527     0.000000 
 136.080000  1792.000000     0.000558  1541.097835     0.000000 
 136.100000  1841.400000     0.000543  1538.281636     0.000000 
 136.120000  1862.100000     0.000537  1534.883370     0.000000 
 136.140000  1869.000000     0.000535  1530.905077     0.000000 
 136.160000  1848.300000     0.000541  1526.353364     0.000000 
 136.180000  1763.000000     0.000567  1521.239178     0.000000 
 136.200000  1675.000000     0.000597  1515.577514     0.000000 
 136.220000  1595.000000     0.000627  1509.387044     0.000000 
 136.240000  1510.300000     0.000662  1502.689641     0.000000 
 136.260000  1413.800000     0.000707  1495.398196     0.000000 
 136.280000  1337.900000     0.000747  1487.753477     0.000000 
 136.300000  1275.900000     0.000784  1479.691068     0.000000 
 136.320000  1186.200000     0.000843  1471.230648     0.000000 
 136.340000  1117.200000     0.000895  1462.402116     0.000000 
 136.360000  1078.000000     0.000928  1453.235430     0.000000 
 136.380000  1055.200000     0.000948  1443.633587     0.000000 
 136.400000  1054.000000     0.000949  1433.879064     0.000000 
 136.420000  1041.400000     0.000960  1423.872611     0.000000 
 136.440000  1061.000000     0.000943  1413.640712     0.000000 
 136.460000  1082.800000     0.000924  1403.203809     0.000000 
 136.480000  1096.600000     0.000912  1392.594391     0.000000 
 136.500000  1103.400000     0.000906  1381.829570     0.000000 
 136.520000  1144.800000     0.000874  1370.929298     0.000000 
 136.540000  1143.000000     0.000875  1359.911886     0.000000 
 136.560000  1186.200000     0.000843  1348.794053     0.000000 
 136.580000  1227.600000     0.000815  1337.591029     0.000000 
 136.600000  1252.000000     0.000799  1326.316752     0.000000 
 136.620000  1273.000000     0.000786  1314.984010     0.000000 
 136.640000  1354.100000     0.000738  1303.604639     0.000000 
 136.660000  1412.100000     0.000708  1292.189731     0.000000 
 136.680000  1520.700000     0.000658  1280.749839     0.000000 
 136.700000  1629.300000     0.000614  1269.295152     0.000000 
 136.720000  1723.400000     0.000580  1257.835688     0.000000 
 136.740000  1788.600000     0.000559  1246.381434     0.000000 
 136.760000  1839.300000     0.000544  1234.942483     0.000000 
 136.780000  1846.600000     0.000542  1223.529110     0.000000 
 136.800000  1855.200000     0.000539  1212.151837     0.000000 
 136.820000  1848.300000     0.000541  1200.821442     0.000000 
 136.840000  1848.300000     0.000541  1189.548971     0.000000 
 136.860000  1772.400000     0.000564  1178.329096     0.000000 
 136.880000  1703.400000     0.000587  1167.206422     0.000000 
 136.900000  1627.600000     0.000614  1156.175799     0.000000 
 136.920000  1544.800000     0.000647  1145.248676     0.000000 
 136.940000  1462.100000     0.000684  1134.436401     0.000000 
 136.960000  1344.800000     0.000744  1123.743486     0.000000 
 136.980000  1275.900000     0.000784  1113.194055     0.000000 
 137.000000  1213.800000     0.000824  1102.789706     0.000000 
 137.020000  1117.200000     0.000895  1092.544905     0.000000 
 137.040000  1055.200000     0.000948  1082.466936     0.000000 
 137.060000  1013.800000     0.000986  1072.564756     0.000000 
 137.080000   979.300000     0.001021  1062.846724     0.000000 
 137.100000   958.600000     0.001043  1053.320573     0.000000 
 137.120000   931.000000     0.001074  1043.993393     0.000000 
 137.140000   924.100000     0.001082  1034.871622     0.000000 
 137.160000   903.000000     0.001107  1025.961047     0.000000 
 137.180000   889.700000     0.001124  1017.266805     0.000000 
 137.200000   880.800000     0.001135  1008.793399     0.000000 
 137.220000   892.000000     0.001121  1000.533279     0.000000 
 137.240000   882.800000     0.001133   992.512676     0.000000 
 137.260000   880.000000     0.001136   984.722858     0.000000 
 137.280000   894.000000     0.001119   977.166040     0.000000 
 137.300000   883.000000     0.001133   969.843959     0.000000 
 137.320000   919.000000     0.001088   962.757897     0.000000 
 137.340000   917.200000     0.001090   955.908725     0.000000 
 137.360000   941.400000     0.001062   949.296934     0.000000 
 137.380000   948.600000     0.001054   942.872907     0.000000 
 137.400000   992.100000     0.001008   936.736179     0.000000 
 137.420000  1013.800000     0.000986   930.836379     0.000000 
 137.440000  1035.500000     0.000966   925.172806     0.000000 
 137.460000  1071.700000     0.000933   919.744528     0.000000 
 137.480000  1093.400000     0.000915   914.550401     0.000000 
 137.500000  1082.800000     0.000924   909.589078     0.000000 
 137.520000  1088.000000     0.000919   904.859027     0.000000 
 137.540000  1082.800000     0.000924   900.358549     0.000000 
 137.560000  1082.800000     0.000924   896.085780     0.000000 
 137.580000  1055.200000     0.000948   892.038708     0.000000 
 137.600000  1041.400000     0.000960   888.211371     0.000000 
 137.620000  1020.700000     0.000980   884.609144     0.000000 
 137.640000   979.000000     0.001021   881.225820     0.000000 
 137.660000   958.600000     0.001043   878.058927     0.000000 
 137.680000   937.900000     0.001066   875.105918     0.000000 
 137.700000   910.300000     0.001099   872.364186     0.000000 
 137.720000   903.400000     0.001107   869.831082     0.000000 
 137.740000   889.700000     0.001124   867.503931     0.000000 
 137.760000   867.000000     0.001153   865.375439     0.000000 
 137.780000   864.000000     0.001157   863.452155     0.000000 
 137.800000   860.000000     0.001163   861.726787     0.000000 
 137.820000   872.000000     0.001147   860.196692     0.000000 
 137.840000   851.000000     0.001175   858.859255     0.000000 
 137.860000   841.400000     0.001188   857.711891     0.000000 
 137.880000   823.000000     0.001215   856.752048     0.000000 
 137.900000   832.800000     0.001201   855.977199     0.000000 
 137.920000   830.800000     0.001204   855.384840     0.000000 
 137.940000   822.000000     0.001217   854.972477     0.000000 
 137.960000   818.300000     0.001222   854.737616     0.000000 
 137.980000   846.000000     0.001182   854.677751     0.000000 
 138.000000   826.000000     0.001211   854.790350     0.000000 
 138.020000   825.500000     0.001211   855.072838     0.000000 
 138.040000   840.000000     0.001190   855.522583     0.000000 
 138.060000   829.500000     0.001206   856.136882     0.000000 
 138.080000   832.800000     0.001201   856.912940     0.000000 
 138.100000   847.200000     0.001180   857.847865     0.000000 
 138.120000   854.500000     0.001170   858.938643     0.000000 
 138.140000   840.000000     0.001190   860.119557     0.000000 
 138.160000   825.500000     0.001211   861.512689     0.000000 
 138.180000   818.300000     0.001222   863.051823     0.000000 
 138.200000   832.800000     0.001201   864.733368     0.000000 
 138.220000   840.000000     0.001190   866.553571     0.000000 
 138.240000   832.800000     0.001201   868.508509     0.000000 
 138.260000   840.000000     0.001190   870.594086     0.000000 
 138.280000   842.000000     0.001188   872.806031     0.000000 
 138.300000   832.800000     0.001201   875.139902     0.000000 
 138.320000   840.000000     0.001190   877.591081     0.000000 
 138.340000   854.500000     0.001170   880.154787     0.000000 
 138.360000   852.500000     0.001173   882.826070     0.000000 
 138.380000   861.700000     0.001160   885.599817     0.000000 
 138.400000   869.000000     0.001151   888.470761     0.000000 
 138.420000   861.700000     0.001160   891.433491     0.000000 
 138.440000   850.500000     0.001176   894.405341     0.000000 
 138.460000   857.500000     0.001166   897.535061     0.000000 
 138.480000   853.500000     0.001172   900.739463     0.000000 
 138.500000   859.500000     0.001163   904.012585     0.000000 
 138.520000   869.000000     0.001151   907.348347     0.000000 
 138.540000   861.700000     0.001160   910.740564     0.000000 
 138.560000   863.700000     0.001158   914.182947     0.000000 
 138.580000   865.200000     0.001156   917.669131     0.000000 
 138.600000   865.200000     0.001156   921.192681     0.000000 
 138.620000   860.700000     0.001162   924.747111     0.000000 
 138.640000   869.700000     0.001150   928.325911     0.000000 
 138.660000   892.100000     0.001121   931.922560     0.000000 
 138.680000   896.600000     0.001115   935.530557     0.000000 
 138.700000   896.600000     0.001115   939.143433     0.000000 
 138.720000   905.500000     0.001104   942.754783     0.000000 
 138.740000   919.000000     0.001088   946.358268     0.000000 
 138.760000   936.900000     0.001067   949.947641     0.000000 
 138.780000   954.800000     0.001047   953.510816     0.000000 
 138.800000   977.200000     0.001023   957.053594     0.000000 
 138.820000  1008.600000     0.000991   960.564041     0.000000 
 138.840000  1031.000000     0.000970   964.036248     0.000000 
 138.860000  1080.300000     0.000926   967.464344     0.000000 
 138.880000  1116.200000     0.000896   970.842490     0.000000 
 138.900000  1156.600000     0.000865   974.164848     0.000000 
 138.920000  1187.900000     0.000842   977.409449     0.000000 
 138.940000  1213.000000     0.000824   980.602639     0.000000 
 138.960000  1210.300000     0.000826   983.722284     0.000000 
 138.980000  1201.400000     0.000832   986.762320     0.000000 
 139.000000  1179.000000     0.000848   989.716605     0.000000 
 139.020000  1143.100000     0.000875   992.578928     0.000000 
 139.040000  1098.300000     0.000910   995.343026     0.000000 
 139.060000  1066.900000     0.000937   998.002617     0.000000 
 139.080000  1026.600000     0.000974  1000.551455     0.000000 
 139.100000   990.700000     0.001009  1002.983372     0.000000 
 139.120000   981.700000     0.001019  1005.292362     0.000000 
 139.140000   950.300000     0.001052  1007.472636     0.000000 
 139.160000   945.900000     0.001057  1009.518696     0.000000 
 139.180000   927.900000     0.001078  1011.425419     0.000000 
 139.200000   937.400000     0.001067  1013.188103     0.000000 
 139.220000   932.400000     0.001073  1014.802545     0.000000 
 139.240000   923.400000     0.001083  1016.265073     0.000000 
 139.260000   925.000000     0.001081  1017.572589     0.000000 
 139.280000   920.000000     0.001087  1018.722562     0.000000 
 139.300000   936.400000     0.001068  1019.713056     0.000000 
 139.320000   932.400000     0.001073  1020.542688     0.000000 
 139.340000   919.000000     0.001088  1021.210613     0.000000 
 139.360000   941.400000     0.001062  1021.716467     0.000000 
 139.380000   932.400000     0.001073  1022.060328     0.000000 
 139.400000   927.900000     0.001078  1022.242647     0.000000 
 139.420000   923.400000     0.001083  1022.264190     0.000000 
 139.440000   936.900000     0.001067  1022.125982     0.000000 
 139.460000   929.000000     0.001076  1021.829258     0.000000 
 139.480000   940.400000     0.001063  1021.375408     0.000000 
 139.500000   941.400000     0.001062  1020.765943     0.000000 
 139.520000   950.300000     0.001052  1019.965262     0.000000 
 139.540000   968.300000     0.001033  1019.049602     0.000000 
 139.560000   972.800000     0.001028  1017.983387     0.000000 
 139.580000   986.200000     0.001014  1016.768455     0.000000 
 139.600000  1013.100000     0.000987  1015.406714     0.000000 
 139.620000  1026.600000     0.000974  1013.900007     0.000000 
 139.640000  1040.000000     0.000962  1012.250768     0.000000 
 139.660000  1062.400000     0.000941  1010.461054     0.000000 
 139.680000  1090.800000     0.000917  1008.533213     0.000000 
 139.700000  1093.800000     0.000914  1006.469722     0.000000 
 139.720000  1107.200000     0.000903  1004.273192     0.000000 
 139.740000  1098.300000     0.000910  1001.946360     0.000000 
 139.760000  1080.300000     0.000926   999.492087     0.000000 
 139.780000  1057.900000     0.000945   996.913340     0.000000 
 139.800000  1049.000000     0.000953   994.213185     0.000000 
 139.820000  1031.000000     0.000970   991.394762     0.000000 
 139.840000  1008.000000     0.000992   988.461280     0.000000 
 139.860000   981.700000     0.001019   985.415433     0.000000 
 139.880000   986.200000     0.001014   982.261624     0.000000 
 139.900000   980.000000     0.001020   979.002613     0.000000 
 139.920000   981.700000     0.001019   975.641731     0.000000 
 139.940000   972.800000     0.001028   972.182339     0.000000 
 139.960000   977.200000     0.001023   968.627818     0.000000 
 139.980000   979.800000     0.001021   964.981582     0.000000 
 140.000000   972.800000     0.001028   961.247095     0.000000 
#######	End powder diffraction data	#######
