_publ_contact_author_name            'Danna Freedman'
_publ_contact_author_address         '77 Massachusetts Avenue (18-592), Cambridge, MA 02139, United States'
_publ_contact_author_email           danna@mit.edu

# start Validation Reply Form
_vrf_REFLT02_ZrNi6Ge6_0
;
PROBLEM: The number of reflections greater than the sigma threshold
RESPONSE: The number of reflections greater than the sigma threshold and number of symmmetry-indpendent reflections are both reported as 0.
;
_vrf_PLAT881_ZrNi6Ge6_0
;
PROBLEM: No Datum for _diffrn_reflns_av_R_equivalents ...     Please Do !  
RESPONSE: These values are not calculated for this powder cif.
;
# end Validation Reply Form


#######	Begin powder crystal structure	#######
data_ZrNi6Ge6_0
_pd_block_id	ZrNi6Ge6_0
_pd_block_diffractogram_id	Ge6_Ni6_Zr_raw.xy_0
_pd_phase_name
;ZrNi6Ge6
;
_chemical_formula_structural        'Zr Ni6 Ge6'
_chemical_formula_sum               'Zr Ni6 Ge6'
_chemical_formula_weight	879.16

_space_group_crystal_system	hexagonal       
_space_group_name_H-M_alt	P6/mmm
_space_group_name_Hall	 '-P 6 2'
_space_group_IT_number	191
_exptl_crystal_description 'powder'
_exptl_crystal_colour 'dark metallic black'

_cell_length_a	5.08126(7)
_cell_length_b	5.08126(7)
_cell_length_c	7.95190(19)
_cell_angle_alpha	90
_cell_angle_beta	90
_cell_angle_gamma	120
_cell_volume	177.805(6)
_exptl_crystal_density_diffrn	8.2112(3)
_exptl_absorpt_coefficient_mu	55.470(2)
_diffrn_radiation_wavelength	1.540560000
_cell_formula_units_Z	1
_cell_measurement_temperature	298
_diffrn_ambient_temperature	298
_cell_measurement_pressure	101
_cell_measurement_theta_min	2.5
_cell_measurement_theta_max	50
_cell_measurement_reflns_used 59
_diffrn_reflns_number 59
_diffrn_measured_fraction_theta_full 1

loop_
	_space_group_symop_id
	_space_group_symop_operation_xyz
	  1 'x, y, z '
	  2 '-x, -x+y, z '
	  3 '-x, -y, -z '
	  4 '-x, -y, z '
	  5 '-x+y, -x, -z '
	  6 '-x+y, -x, z '
	  7 '-x+y, y, -z '
	  8 '-x+y, y, z '
	  9 '-y, -x, -z '
	 10 '-y, -x, z '
	 11 '-y, x-y, -z '
	 12 '-y, x-y, z '
	 13 'y, -x+y, -z '
	 14 'y, -x+y, z '
	 15 'y, x, -z '
	 16 'y, x, z '
	 17 'x-y, -y, -z '
	 18 'x-y, -y, z '
	 19 'x-y, x, -z '
	 20 'x-y, x, z '
	 21 'x, y, -z '
	 22 '-x, -x+y, -z '
	 23 'x, x-y, -z '
	 24 'x, x-y, z '
loop_
	_atom_site_label
	_atom_site_type_symbol
	_atom_site_site_symmetry_multiplicity
	_atom_site_fract_x
	_atom_site_fract_y
	_atom_site_fract_z
	_atom_site_occupancy
	_atom_site_B_iso_or_equiv
Zr0 Zr   1 0 0 0.5 1 0
Ni1 Ni   6 0.5 0 0.2490073 1 0
Ge2 Ge   2 0.3333333 0.6666667 0.5 1 0
Ge3 Ge   2 0 0 0.1533776 1 0
Ge4 Ge   2 0.3333333 0.6666667 0 1 0
loop_
	_geom_bond_atom_site_label_1
	_geom_bond_atom_site_label_2
	_geom_bond_distance
	_geom_bond_site_symmetry_1
	_geom_bond_site_symmetry_2
	Zr0       Ge3       2.75631(6) 1_555   3_556
	Zr0       Ge3       2.75631(6) 1_555   1_555
	Zr0       Ge2       2.93367(4) 1_555   1_545
	Zr0       Ge2       2.93367(4) 1_555   2_545
	Zr0       Ge2       2.93367(4) 1_555   2_555
	Zr0       Ge2       2.93367(4) 1_555   1_445
	Zr0       Ge2       2.93367(4) 1_555   1_555
	Zr0       Ge2       2.93367(4) 1_555   2_655
	Ni1       Ge4       2.46421(4) 1_555   1_545
	Ni1       Ge4       2.46421(4) 1_555   2_655
	Ni1       Ge2       2.47691(4) 1_555   1_545
	Ni1       Ge2       2.47691(4) 1_555   2_655
	Ni1       Ni1       2.54063(4) 1_555   2_665
	Ni1       Ni1       2.54063(4) 1_555   2_655
	Ni1       Ni1       2.54063(4) 1_555  10_665
	Ni1       Ni1       2.54063(4) 1_555  10_555
	Ni1       Ge3       2.65199(3) 1_555   1_655
	Ni1       Ge3       2.65199(3) 1_555   1_555
	Ge2       Ni1       2.47691(4) 1_555   1_565
	Ge2       Ni1       2.47691(4) 1_555   9_566
	Ge2       Ni1       2.47691(4) 1_555   3_666
	Ge2       Ni1       2.47691(4) 1_555  10_565
	Ge2       Ni1       2.47691(4) 1_555   2_665
	Ge2       Ni1       2.47691(4) 1_555   5_666
	Ge2       Zr0       2.93367(4) 1_555   1_565
	Ge2       Ge2       2.93367(4) 1_555   2_555
	Ge2       Ge2       2.93367(4) 1_555   2_655
	Ge2       Zr0       2.93367(4) 1_555   1_665
	Ge2       Ge2       2.93367(4) 1_555   2_665
	Ge2       Zr0       2.93367(4) 1_555   1_555
	Ge3       Ge3       2.43929(6) 1_555   3_555
	Ge3       Ni1       2.65199(3) 1_555  10_555
	Ge3       Ni1       2.65199(3) 1_555   1_455
	Ge3       Ni1       2.65199(3) 1_555  10_565
	Ge3       Ni1       2.65199(3) 1_555   1_555
	Ge3       Ni1       2.65199(3) 1_555   2_555
	Ge3       Ni1       2.65199(3) 1_555   2_665
	Ge3       Zr0       2.75631(6) 1_555   1_555
	Ge3       Ge4       3.17709(4) 1_555   1_545
	Ge3       Ge4       3.17709(4) 1_555   2_545
	Ge3       Ge4       3.17709(4) 1_555   2_555
	Ge3       Ge4       3.17709(4) 1_555   1_555
	Ge3       Ge4       3.17709(4) 1_555   2_655
	Ge3       Ge4       3.17709(4) 1_555   1_445
	Ge4       Ni1       2.46421(4) 1_555   3_665
	Ge4       Ni1       2.46421(4) 1_555  10_565
	Ge4       Ni1       2.46421(4) 1_555   1_565
	Ge4       Ni1       2.46421(4) 1_555   9_565
	Ge4       Ni1       2.46421(4) 1_555   5_665
	Ge4       Ni1       2.46421(4) 1_555   2_665
	Ge4       Ge4       2.93367(4) 1_555   2_555
	Ge4       Ge4       2.93367(4) 1_555   2_655
	Ge4       Ge4       2.93367(4) 1_555   2_665
	Ge4       Ge3       3.17709(4) 1_555   1_565
	Ge4       Ge3       3.17709(4) 1_555   3_565
	Ge4       Ge3       3.17709(4) 1_555   3_665
	Ge4       Ge3       3.17709(4) 1_555   1_555
	Ge4       Ge3       3.17709(4) 1_555   1_665
	Ge4       Ge3       3.17709(4) 1_555   3_555
	loop_
		_geom_angle_atom_site_label_1
		_geom_angle_atom_site_label_2
		_geom_angle_atom_site_label_3
		_geom_angle
		_geom_angle_site_symmetry_1
		_geom_angle_site_symmetry_2
		_geom_angle_site_symmetry_3
	Ge3       Zr0       Ge3        180.000   1_555 1_555   3_556
	Ge2       Zr0       Ge3        90.000    1_545 1_555   1_555
	Ge2       Zr0       Ge3        90.000    1_545 1_555   3_556
	Ge2       Zr0       Ge2        60.000    2_545 1_555   1_545
	Ge2       Zr0       Ge3        90.000    2_545 1_555   1_555
	Ge2       Zr0       Ge3        90.000    2_545 1_555   3_556
	Ge2       Zr0       Ge2        120.000   2_555 1_555   2_545
	Ge2       Zr0       Ge2        180.000   2_555 1_555   1_545
	Ge2       Zr0       Ge3        90.000    2_555 1_555   1_555
	Ge2       Zr0       Ge3        90.000    2_555 1_555   3_556
	Ge2       Zr0       Ge2        60.000    1_445 1_555   2_555
	Ge2       Zr0       Ge2        60.000    1_445 1_555   2_545
	Ge2       Zr0       Ge2        120.000   1_445 1_555   1_545
	Ge2       Zr0       Ge3        90.000    1_445 1_555   1_555
	Ge2       Zr0       Ge3        90.000    1_445 1_555   3_556
	Ge2       Zr0       Ge2        120.000   1_555 1_555   1_445
	Ge2       Zr0       Ge2        60.000    1_555 1_555   2_555
	Ge2       Zr0       Ge2        180.000   1_555 1_555   2_545
	Ge2       Zr0       Ge2        120.000   1_555 1_555   1_545
	Ge2       Zr0       Ge3        90.000    1_555 1_555   1_555
	Ge2       Zr0       Ge3        90.000    1_555 1_555   3_556
	Ge2       Zr0       Ge2        60.000    2_655 1_555   1_555
	Ge2       Zr0       Ge2        180.00000000(17)  2_655 1_555   1_445
	Ge2       Zr0       Ge2        120.000   2_655 1_555   2_555
	Ge2       Zr0       Ge2        120.000   2_655 1_555   2_545
	Ge2       Zr0       Ge2        60.000    2_655 1_555   1_545
	Ge2       Zr0       Ge3        90.000    2_655 1_555   1_555
	Ge2       Zr0       Ge3        90.000    2_655 1_555   3_556
	Ge4       Ni1       Ge4        73.0617(15)  2_655 1_555   1_545
	Ge2       Ni1       Ge4        179.7826047(18)  1_545 1_555   2_655
	Ge2       Ni1       Ge4        107.1557(15)  1_545 1_555   1_545
	Ge2       Ni1       Ge2        72.6269(15)  2_655 1_555   1_545
	Ge2       Ni1       Ge4        107.1557(15)  2_655 1_555   2_655
	Ge2       Ni1       Ge4        179.7826064(18)  2_655 1_555   1_545
	Ni1       Ni1       Ge2        59.1453(6)  2_665 1_555   2_655
	Ni1       Ni1       Ge2        120.8547(6)  2_665 1_555   1_545
	Ni1       Ni1       Ge4        58.9687(6)  2_665 1_555   2_655
	Ni1       Ni1       Ge4        121.0313(6)  2_665 1_555   1_545
	Ni1       Ni1       Ni1        180.00000000(12)  2_655 1_555   2_665
	Ni1       Ni1       Ge2        120.8547(6)  2_655 1_555   2_655
	Ni1       Ni1       Ge2        59.1453(6)  2_655 1_555   1_545
	Ni1       Ni1       Ge4        121.0313(6)  2_655 1_555   2_655
	Ni1       Ni1       Ge4        58.9687(6)  2_655 1_555   1_545
	Ni1       Ni1       Ni1        120.000  10_665 1_555   2_655
	Ni1       Ni1       Ni1        60.000   10_665 1_555   2_665
	Ni1       Ni1       Ge2        59.1453(6) 10_665 1_555   2_655
	Ni1       Ni1       Ge2        120.8547(6) 10_665 1_555   1_545
	Ni1       Ni1       Ge4        58.9687(6) 10_665 1_555   2_655
	Ni1       Ni1       Ge4        121.0313(6) 10_665 1_555   1_545
	Ni1       Ni1       Ni1        179.99999915(12) 10_555 1_555  10_665
	Ni1       Ni1       Ni1        60.000   10_555 1_555   2_655
	Ni1       Ni1       Ni1        120.000  10_555 1_555   2_665
	Ni1       Ni1       Ge2        120.8547(6) 10_555 1_555   2_655
	Ni1       Ni1       Ge2        59.1453(6) 10_555 1_555   1_545
	Ni1       Ni1       Ge4        121.0313(6) 10_555 1_555   2_655
	Ni1       Ni1       Ge4        58.9687(6) 10_555 1_555   1_545
	Ge3       Ni1       Ni1        118.62036(7)  1_655 1_555  10_555
	Ge3       Ni1       Ni1        61.37964(7)  1_655 1_555  10_665
	Ge3       Ni1       Ni1        61.37964(7)  1_655 1_555   2_655
	Ge3       Ni1       Ni1        118.62036(7)  1_655 1_555   2_665
	Ge3       Ni1       Ge2        103.3591(5)  1_655 1_555   2_655
	Ge3       Ni1       Ge2        103.3591(5)  1_655 1_555   1_545
	Ge3       Ni1       Ge4        76.6789(5)  1_655 1_555   2_655
	Ge3       Ni1       Ge4        76.6789(5)  1_655 1_555   1_545
	Ge3       Ni1       Ge3        146.6740(9)  1_555 1_555   1_655
	Ge3       Ni1       Ni1        61.37964(7)  1_555 1_555  10_555
	Ge3       Ni1       Ni1        118.62036(7)  1_555 1_555  10_665
	Ge3       Ni1       Ni1        118.62036(7)  1_555 1_555   2_655
	Ge3       Ni1       Ni1        61.37964(7)  1_555 1_555   2_665
	Ge3       Ni1       Ge2        103.3591(5)  1_555 1_555   2_655
	Ge3       Ni1       Ge2        103.3591(5)  1_555 1_555   1_545
	Ge3       Ni1       Ge4        76.6789(5)  1_555 1_555   2_655
	Ge3       Ni1       Ge4        76.6789(5)  1_555 1_555   1_545
	Ni1       Ge2       Ni1        145.5529(6)  9_566 1_555   1_565
	Ni1       Ge2       Ni1        61.7093(12)  3_666 1_555   9_566
	Ni1       Ge2       Ni1        107.3731(15)  3_666 1_555   1_565
	Ni1       Ge2       Ni1        145.5529(6) 10_565 1_555   3_666
	Ni1       Ge2       Ni1        107.3731(15) 10_565 1_555   9_566
	Ni1       Ge2       Ni1        61.7093(12) 10_565 1_555   1_565
	Ni1       Ge2       Ni1        61.7093(12)  2_665 1_555  10_565
	Ni1       Ge2       Ni1        145.5528(6)  2_665 1_555   3_666
	Ni1       Ge2       Ni1        145.5528(6)  2_665 1_555   9_566
	Ni1       Ge2       Ni1        61.7093(12)  2_665 1_555   1_565
	Ni1       Ge2       Ni1        107.3731(15)  5_666 1_555   2_665
	Ni1       Ge2       Ni1        145.5528(6)  5_666 1_555  10_565
	Ni1       Ge2       Ni1        61.7093(12)  5_666 1_555   3_666
	Ni1       Ge2       Ni1        61.7093(12)  5_666 1_555   9_566
	Ni1       Ge2       Ni1        145.5528(6)  5_666 1_555   1_565
	Zr0       Ge2       Ni1        126.3134(7)  1_565 1_555   5_666
	Zr0       Ge2       Ni1        126.3134(7)  1_565 1_555   2_665
	Zr0       Ge2       Ni1        72.7764(3)  1_565 1_555  10_565
	Zr0       Ge2       Ni1        72.7764(3)  1_565 1_555   3_666
	Zr0       Ge2       Ni1        72.7764(3)  1_565 1_555   9_566
	Zr0       Ge2       Ni1        72.7764(3)  1_565 1_555   1_565
	Ge2       Ge2       Zr0        60.000    2_555 1_555   1_565
	Ge2       Ge2       Ni1        107.2236(3)  2_555 1_555   5_666
	Ge2       Ge2       Ni1        107.2236(3)  2_555 1_555   2_665
	Ge2       Ge2       Ni1        53.6866(7)  2_555 1_555  10_565
	Ge2       Ge2       Ni1        107.2236(3)  2_555 1_555   3_666
	Ge2       Ge2       Ni1        53.6866(7)  2_555 1_555   9_566
	Ge2       Ge2       Ni1        107.2236(3)  2_555 1_555   1_565
	Ge2       Ge2       Ge2        120.000   2_655 1_555   2_555
	Ge2       Ge2       Zr0        180.00000000(17)  2_655 1_555   1_565
	Ge2       Ge2       Ni1        53.6866(7)  2_655 1_555   5_666
	Ge2       Ge2       Ni1        53.6866(7)  2_655 1_555   2_665
	Ge2       Ge2       Ni1        107.2236(3)  2_655 1_555  10_565
	Ge2       Ge2       Ni1        107.2236(3)  2_655 1_555   3_666
	Ge2       Ge2       Ni1        107.2236(3)  2_655 1_555   9_566
	Ge2       Ge2       Ni1        107.2236(3)  2_655 1_555   1_565
	Zr0       Ge2       Ge2        60.000    1_665 1_555   2_655
	Zr0       Ge2       Ge2        180.000   1_665 1_555   2_555
	Zr0       Ge2       Zr0        120.000   1_665 1_555   1_565
	Zr0       Ge2       Ni1        72.7764(3)  1_665 1_555   5_666
	Zr0       Ge2       Ni1        72.7764(3)  1_665 1_555   2_665
	Zr0       Ge2       Ni1        126.3134(7)  1_665 1_555  10_565
	Zr0       Ge2       Ni1        72.7764(3)  1_665 1_555   3_666
	Zr0       Ge2       Ni1        126.3134(7)  1_665 1_555   9_566
	Zr0       Ge2       Ni1        72.7764(3)  1_665 1_555   1_565
	Ge2       Ge2       Zr0        60.000    2_665 1_555   1_665
	Ge2       Ge2       Ge2        120.000   2_665 1_555   2_655
	Ge2       Ge2       Ge2        120.000   2_665 1_555   2_555
	Ge2       Ge2       Zr0        60.000    2_665 1_555   1_565
	Ge2       Ge2       Ni1        107.2236(3)  2_665 1_555   5_666
	Ge2       Ge2       Ni1        107.2236(3)  2_665 1_555   2_665
	Ge2       Ge2       Ni1        107.2236(3)  2_665 1_555  10_565
	Ge2       Ge2       Ni1        53.6866(7)  2_665 1_555   3_666
	Ge2       Ge2       Ni1        107.2236(3)  2_665 1_555   9_566
	Ge2       Ge2       Ni1        53.6866(7)  2_665 1_555   1_565
	Zr0       Ge2       Ge2        180.000   1_555 1_555   2_665
	Zr0       Ge2       Zr0        120.000   1_555 1_555   1_665
	Zr0       Ge2       Ge2        60.000    1_555 1_555   2_655
	Zr0       Ge2       Ge2        60.000    1_555 1_555   2_555
	Zr0       Ge2       Zr0        120.000   1_555 1_555   1_565
	Zr0       Ge2       Ni1        72.7764(3)  1_555 1_555   5_666
	Zr0       Ge2       Ni1        72.7764(3)  1_555 1_555   2_665
	Zr0       Ge2       Ni1        72.7764(3)  1_555 1_555  10_565
	Zr0       Ge2       Ni1        126.3134(7)  1_555 1_555   3_666
	Zr0       Ge2       Ni1        72.7764(3)  1_555 1_555   9_566
	Zr0       Ge2       Ni1        126.3134(7)  1_555 1_555   1_565
	Ni1       Ge3       Ge3        106.6630(4) 10_555 1_555   3_555
	Ni1       Ge3       Ni1        112.1275(4)  1_455 1_555  10_555
	Ni1       Ge3       Ge3        106.6630(4)  1_455 1_555   3_555
	Ni1       Ge3       Ni1        57.24073(14) 10_565 1_555   1_455
	Ni1       Ge3       Ni1        146.6740(9) 10_565 1_555  10_555
	Ni1       Ge3       Ge3        106.6630(4) 10_565 1_555   3_555
	Ni1       Ge3       Ni1        112.1275(4)  1_555 1_555  10_565
	Ni1       Ge3       Ni1        146.6740(9)  1_555 1_555   1_455
	Ni1       Ge3       Ni1        57.24073(14)  1_555 1_555  10_555
	Ni1       Ge3       Ge3        106.6630(4)  1_555 1_555   3_555
	Ni1       Ge3       Ni1        112.1275(4)  2_555 1_555   1_555
	Ni1       Ge3       Ni1        112.1275(4)  2_555 1_555  10_565
	Ni1       Ge3       Ni1        57.24073(14)  2_555 1_555   1_455
	Ni1       Ge3       Ni1        57.24073(14)  2_555 1_555  10_555
	Ni1       Ge3       Ge3        106.6630(4)  2_555 1_555   3_555
	Ni1       Ge3       Ni1        146.6740(9)  2_665 1_555   2_555
	Ni1       Ge3       Ni1        57.24073(14)  2_665 1_555   1_555
	Ni1       Ge3       Ni1        57.24073(14)  2_665 1_555  10_565
	Ni1       Ge3       Ni1        112.1275(4)  2_665 1_555   1_455
	Ni1       Ge3       Ni1        112.1275(4)  2_665 1_555  10_555
	Ni1       Ge3       Ge3        106.6630(4)  2_665 1_555   3_555
	Zr0       Ge3       Ni1        73.3370(4)  1_555 1_555   2_665
	Zr0       Ge3       Ni1        73.3370(4)  1_555 1_555   2_555
	Zr0       Ge3       Ni1        73.3370(4)  1_555 1_555   1_555
	Zr0       Ge3       Ni1        73.3370(4)  1_555 1_555  10_565
	Zr0       Ge3       Ni1        73.3370(4)  1_555 1_555   1_455
	Zr0       Ge3       Ni1        73.3370(4)  1_555 1_555  10_555
	Zr0       Ge3       Ge3        180.000   1_555 1_555   3_555
	Ge4       Ge3       Zr0        112.5746(6)  1_545 1_555   1_555
	Ge4       Ge3       Ni1        96.3197(3)  1_545 1_555   2_665
	Ge4       Ge3       Ni1        96.3197(3)  1_545 1_555   2_555
	Ge4       Ge3       Ni1        49.0034(8)  1_545 1_555   1_555
	Ge4       Ge3       Ni1        151.18343(6)  1_545 1_555  10_565
	Ge4       Ge3       Ni1        151.18343(6)  1_545 1_555   1_455
	Ge4       Ge3       Ni1        49.0034(8)  1_545 1_555  10_555
	Ge4       Ge3       Ge3        67.4254(6)  1_545 1_555   3_555
	Ge4       Ge3       Ge4        54.9924(2)  2_545 1_555   1_545
	Ge4       Ge3       Zr0        112.5746(6)  2_545 1_555   1_555
	Ge4       Ge3       Ni1        151.18343(6)  2_545 1_555   2_665
	Ge4       Ge3       Ni1        49.0034(8)  2_545 1_555   2_555
	Ge4       Ge3       Ni1        96.3197(3)  2_545 1_555   1_555
	Ge4       Ge3       Ni1        151.18343(6)  2_545 1_555  10_565
	Ge4       Ge3       Ni1        96.3197(3)  2_545 1_555   1_455
	Ge4       Ge3       Ni1        49.0034(8)  2_545 1_555  10_555
	Ge4       Ge3       Ge3        67.4254(6)  2_545 1_555   3_555
	Ge4       Ge3       Ge4        106.1973(6)  2_555 1_555   2_545
	Ge4       Ge3       Ge4        134.8507(11)  2_555 1_555   1_545
	Ge4       Ge3       Zr0        112.5746(6)  2_555 1_555   1_555
	Ge4       Ge3       Ni1        96.3197(3)  2_555 1_555   2_665
	Ge4       Ge3       Ni1        96.3197(3)  2_555 1_555   2_555
	Ge4       Ge3       Ni1        151.18343(6)  2_555 1_555   1_555
	Ge4       Ge3       Ni1        49.0034(8)  2_555 1_555  10_565
	Ge4       Ge3       Ni1        49.0034(8)  2_555 1_555   1_455
	Ge4       Ge3       Ni1        151.18343(6)  2_555 1_555  10_555
	Ge4       Ge3       Ge3        67.4254(6)  2_555 1_555   3_555
	Ge4       Ge3       Ge4        54.9924(2)  1_555 1_555   2_555
	Ge4       Ge3       Ge4        134.8507(11)  1_555 1_555   2_545
	Ge4       Ge3       Ge4        106.1973(6)  1_555 1_555   1_545
	Ge4       Ge3       Zr0        112.5746(6)  1_555 1_555   1_555
	Ge4       Ge3       Ni1        49.0034(8)  1_555 1_555   2_665
	Ge4       Ge3       Ni1        151.18343(6)  1_555 1_555   2_555
	Ge4       Ge3       Ni1        96.3197(3)  1_555 1_555   1_555
	Ge4       Ge3       Ni1        49.0034(8)  1_555 1_555  10_565
	Ge4       Ge3       Ni1        96.3197(3)  1_555 1_555   1_455
	Ge4       Ge3       Ni1        151.18343(6)  1_555 1_555  10_555
	Ge4       Ge3       Ge3        67.4254(6)  1_555 1_555   3_555
	Ge4       Ge3       Ge4        54.9924(2)  2_655 1_555   1_555
	Ge4       Ge3       Ge4        106.1973(6)  2_655 1_555   2_555
	Ge4       Ge3       Ge4        106.1973(6)  2_655 1_555   2_545
	Ge4       Ge3       Ge4        54.9924(2)  2_655 1_555   1_545
	Ge4       Ge3       Zr0        112.5746(6)  2_655 1_555   1_555
	Ge4       Ge3       Ni1        49.0034(8)  2_655 1_555   2_665
	Ge4       Ge3       Ni1        151.18343(6)  2_655 1_555   2_555
	Ge4       Ge3       Ni1        49.0034(8)  2_655 1_555   1_555
	Ge4       Ge3       Ni1        96.3197(3)  2_655 1_555  10_565
	Ge4       Ge3       Ni1        151.18343(6)  2_655 1_555   1_455
	Ge4       Ge3       Ni1        96.3197(3)  2_655 1_555  10_555
	Ge4       Ge3       Ge3        67.4254(6)  2_655 1_555   3_555
	Ge4       Ge3       Ge4        134.8507(11)  1_445 1_555   2_655
	Ge4       Ge3       Ge4        106.1973(6)  1_445 1_555   1_555
	Ge4       Ge3       Ge4        54.9924(2)  1_445 1_555   2_555
	Ge4       Ge3       Ge4        54.9924(2)  1_445 1_555   2_545
	Ge4       Ge3       Ge4        106.1973(6)  1_445 1_555   1_545
	Ge4       Ge3       Zr0        112.5746(6)  1_445 1_555   1_555
	Ge4       Ge3       Ni1        151.18343(6)  1_445 1_555   2_665
	Ge4       Ge3       Ni1        49.0034(8)  1_445 1_555   2_555
	Ge4       Ge3       Ni1        151.18343(6)  1_445 1_555   1_555
	Ge4       Ge3       Ni1        96.3197(3)  1_445 1_555  10_565
	Ge4       Ge3       Ni1        49.0034(8)  1_445 1_555   1_455
	Ge4       Ge3       Ni1        96.3197(3)  1_445 1_555  10_555
	Ge4       Ge3       Ge3        67.4254(6)  1_445 1_555   3_555
	Ni1       Ge4       Ni1        145.3697(6) 10_565 1_555   3_665
	Ni1       Ge4       Ni1        62.0626(12)  1_565 1_555  10_565
	Ni1       Ge4       Ni1        106.9383(15)  1_565 1_555   3_665
	Ni1       Ge4       Ni1        145.3697(6)  9_565 1_555   1_565
	Ni1       Ge4       Ni1        106.9383(15)  9_565 1_555  10_565
	Ni1       Ge4       Ni1        62.0626(12)  9_565 1_555   3_665
	Ni1       Ge4       Ni1        62.0626(12)  5_665 1_555   9_565
	Ni1       Ge4       Ni1        145.3697(6)  5_665 1_555   1_565
	Ni1       Ge4       Ni1        145.3697(6)  5_665 1_555  10_565
	Ni1       Ge4       Ni1        62.0626(12)  5_665 1_555   3_665
	Ni1       Ge4       Ni1        106.9383(15)  2_665 1_555   5_665
	Ni1       Ge4       Ni1        145.3697(6)  2_665 1_555   9_565
	Ni1       Ge4       Ni1        62.0626(12)  2_665 1_555   1_565
	Ni1       Ge4       Ni1        62.0626(12)  2_665 1_555  10_565
	Ni1       Ge4       Ni1        145.3697(6)  2_665 1_555   3_665
	Ge4       Ge4       Ni1        107.3152(3)  2_555 1_555   2_665
	Ge4       Ge4       Ni1        107.3152(3)  2_555 1_555   5_665
	Ge4       Ge4       Ni1        53.4692(7)  2_555 1_555   9_565
	Ge4       Ge4       Ni1        107.3152(3)  2_555 1_555   1_565
	Ge4       Ge4       Ni1        53.4692(7)  2_555 1_555  10_565
	Ge4       Ge4       Ni1        107.3152(3)  2_555 1_555   3_665
	Ge4       Ge4       Ge4        120.000   2_655 1_555   2_555
	Ge4       Ge4       Ni1        53.4692(7)  2_655 1_555   2_665
	Ge4       Ge4       Ni1        53.4692(7)  2_655 1_555   5_665
	Ge4       Ge4       Ni1        107.3152(3)  2_655 1_555   9_565
	Ge4       Ge4       Ni1        107.3152(3)  2_655 1_555   1_565
	Ge4       Ge4       Ni1        107.3152(3)  2_655 1_555  10_565
	Ge4       Ge4       Ni1        107.3152(3)  2_655 1_555   3_665
	Ge4       Ge4       Ge4        120.000   2_665 1_555   2_655
	Ge4       Ge4       Ge4        120.000   2_665 1_555   2_555
	Ge4       Ge4       Ni1        107.3152(3)  2_665 1_555   2_665
	Ge4       Ge4       Ni1        107.3152(3)  2_665 1_555   5_665
	Ge4       Ge4       Ni1        107.3152(3)  2_665 1_555   9_565
	Ge4       Ge4       Ni1        53.4692(7)  2_665 1_555   1_565
	Ge4       Ge4       Ni1        107.3152(3)  2_665 1_555  10_565
	Ge4       Ge4       Ni1        53.4692(7)  2_665 1_555   3_665
	Ge3       Ge4       Ge4        62.50378(12)  1_565 1_555   2_665
	Ge3       Ge4       Ge4        157.4254(6)  1_565 1_555   2_655
	Ge3       Ge4       Ge4        62.50378(12)  1_565 1_555   2_555
	Ge3       Ge4       Ni1        103.9562(13)  1_565 1_555   2_665
	Ge3       Ge4       Ni1        149.10547(19)  1_565 1_555   5_665
	Ge3       Ge4       Ni1        91.9280(9)  1_565 1_555   9_565
	Ge3       Ge4       Ni1        54.3177(3)  1_565 1_555   1_565
	Ge3       Ge4       Ni1        54.3177(3)  1_565 1_555  10_565
	Ge3       Ge4       Ni1        91.9280(9)  1_565 1_555   3_665
	Ge3       Ge4       Ge3        45.1493(11)  3_565 1_555   1_565
	Ge3       Ge4       Ge4        62.50378(12)  3_565 1_555   2_665
	Ge3       Ge4       Ge4        157.4254(6)  3_565 1_555   2_655
	Ge3       Ge4       Ge4        62.50378(12)  3_565 1_555   2_555
	Ge3       Ge4       Ni1        149.10547(19)  3_565 1_555   2_665
	Ge3       Ge4       Ni1        103.9562(13)  3_565 1_555   5_665
	Ge3       Ge4       Ni1        54.3177(3)  3_565 1_555   9_565
	Ge3       Ge4       Ni1        91.9280(9)  3_565 1_555   1_565
	Ge3       Ge4       Ni1        91.9280(9)  3_565 1_555  10_565
	Ge3       Ge4       Ni1        54.3177(3)  3_565 1_555   3_665
	Ge3       Ge4       Ge3        106.1973(6)  3_665 1_555   3_565
	Ge3       Ge4       Ge3        125.0076(2)  3_665 1_555   1_565
	Ge3       Ge4       Ge4        62.50378(12)  3_665 1_555   2_665
	Ge3       Ge4       Ge4        62.50378(12)  3_665 1_555   2_655
	Ge3       Ge4       Ge4        157.4254(6)  3_665 1_555   2_555
	Ge3       Ge4       Ni1        91.9280(9)  3_665 1_555   2_665
	Ge3       Ge4       Ni1        54.3177(3)  3_665 1_555   5_665
	Ge3       Ge4       Ni1        103.9562(13)  3_665 1_555   9_565
	Ge3       Ge4       Ni1        91.9280(9)  3_665 1_555   1_565
	Ge3       Ge4       Ni1        149.10546(19)  3_665 1_555  10_565
	Ge3       Ge4       Ni1        54.3177(3)  3_665 1_555   3_665
	Ge3       Ge4       Ge3        125.0076(2)  1_555 1_555   3_665
	Ge3       Ge4       Ge3        125.0076(2)  1_555 1_555   3_565
	Ge3       Ge4       Ge3        106.1973(6)  1_555 1_555   1_565
	Ge3       Ge4       Ge4        157.4254(6)  1_555 1_555   2_665
	Ge3       Ge4       Ge4        62.50378(12)  1_555 1_555   2_655
	Ge3       Ge4       Ge4        62.50378(12)  1_555 1_555   2_555
	Ge3       Ge4       Ni1        54.3177(3)  1_555 1_555   2_665
	Ge3       Ge4       Ni1        91.9280(9)  1_555 1_555   5_665
	Ge3       Ge4       Ni1        91.9280(9)  1_555 1_555   9_565
	Ge3       Ge4       Ni1        103.9562(13)  1_555 1_555   1_565
	Ge3       Ge4       Ni1        54.3177(3)  1_555 1_555  10_565
	Ge3       Ge4       Ni1        149.10546(19)  1_555 1_555   3_665
	Ge3       Ge4       Ge3        106.1973(6)  1_665 1_555   1_555
	Ge3       Ge4       Ge3        45.1493(11)  1_665 1_555   3_665
	Ge3       Ge4       Ge3        125.0076(2)  1_665 1_555   3_565
	Ge3       Ge4       Ge3        106.1973(6)  1_665 1_555   1_565
	Ge3       Ge4       Ge4        62.50378(12)  1_665 1_555   2_665
	Ge3       Ge4       Ge4        62.50378(12)  1_665 1_555   2_655
	Ge3       Ge4       Ge4        157.4254(6)  1_665 1_555   2_555
	Ge3       Ge4       Ni1        54.3177(3)  1_665 1_555   2_665
	Ge3       Ge4       Ni1        91.9280(9)  1_665 1_555   5_665
	Ge3       Ge4       Ni1        149.10546(19)  1_665 1_555   9_565
	Ge3       Ge4       Ni1        54.3177(3)  1_665 1_555   1_565
	Ge3       Ge4       Ni1        103.9562(13)  1_665 1_555  10_565
	Ge3       Ge4       Ni1        91.9280(9)  1_665 1_555   3_665
	Ge3       Ge4       Ge3        125.0076(2)  3_555 1_555   1_665
	Ge3       Ge4       Ge3        45.1493(11)  3_555 1_555   1_555
	Ge3       Ge4       Ge3        106.1973(6)  3_555 1_555   3_665
	Ge3       Ge4       Ge3        106.1973(6)  3_555 1_555   3_565
	Ge3       Ge4       Ge3        125.0076(2)  3_555 1_555   1_565
	Ge3       Ge4       Ge4        157.4254(6)  3_555 1_555   2_665
	Ge3       Ge4       Ge4        62.50378(12)  3_555 1_555   2_655
	Ge3       Ge4       Ge4        62.50378(12)  3_555 1_555   2_555
	Ge3       Ge4       Ni1        91.9280(9)  3_555 1_555   2_665
	Ge3       Ge4       Ni1        54.3177(3)  3_555 1_555   5_665
	Ge3       Ge4       Ni1        54.3177(3)  3_555 1_555   9_565
	Ge3       Ge4       Ni1        149.10546(19)  3_555 1_555   1_565
	Ge3       Ge4       Ni1        91.9280(9)  3_555 1_555  10_565
	Ge3       Ge4       Ni1        103.9562(13)  3_555 1_555   3_665
#######	End powder crystal structure	#######


#######	Begin powder diffraction data	#######
data_Ge6_Ni6_Zr_raw.xy_0
_pd_block_id	Ge6_Ni6_Zr_raw.xy_0
_pd_calc_method	Rietveld
_diffrn_radiation_probe	x-ray
_diffrn_radiation_wavelength	1.540560000
_refine_ls_goodness_of_fit_all	2.62938
_pd_proc_ls_prof_R_factor	0.10832
_pd_proc_ls_prof_wR_factor	0.14427
_pd_proc_ls_prof_wR_expected	0.05487
loop_
	_pd_phase_id
	_pd_phase_block_id
	_pd_phase_mass_%
1	ZrNi6Ge6_0	100
loop_
	_refln_index_h
	_refln_index_k
	_refln_index_l
	_pd_refln_phase_id
	_refln_d_spacing
	_refln_F_squared_calc
	_refln_F_squared_meas
   0    0    1 1    7.951903     0.021595     0.023919
   0    0    2 1    3.975952     0.074821     0.092404
   0    0    3 1    2.650634    12.451548    11.375247
   0    0    4 1    1.987976    66.158108    71.090694
   0    0    5 1    1.590381     0.682936     0.643346
   0    0    6 1    1.325317     4.989686     5.101374
   0    0    7 1    1.135986     0.042974     0.043548
   1    0    0 1    4.400499     0.476256     0.518262
   1    0    1 1    3.850263     0.175898     0.181786
   1    0    2 1    2.950128     0.184017     0.198113
   1    0    3 1    2.270544    63.313064    62.456803
   1    0    4 1    1.811682    74.051902    64.742276
   1    0    5 1    1.495696     5.544677     5.044261
   1    0    6 1    1.269013    22.108007    22.440448
   1    0    7 1    1.099927     0.783225     0.822382
   2   -1    0 1    2.540629   108.968728   116.270133
   2   -1    1 1    2.420108     0.151573     0.177022
   2   -1    2 1    2.140872   224.791302   219.365485
   2   -1    3 1    1.834153    54.246550    54.084035
   2   -1    4 1    1.565643    24.416785    23.686496
   2   -1    5 1    1.348047     5.010634     4.704894
   2   -1    6 1    1.175049   233.963723   218.456513
   2   -1    7 1    1.037042     0.656936     0.651846
   2    0    0 1    2.200249   107.157457   119.241761
   2    0    1 1    2.120571     0.083628     0.079487
   2    0    2 1    1.925132   199.224631   209.629132
   2    0    3 1    1.692981    54.305228    54.286500
   2    0    4 1    1.475064    19.957753    20.400630
   2    0    5 1    1.288924     3.422906     3.350323
   2    0    6 1    1.135272    28.268541    28.563700
   2    0    7 1    1.009391     0.168767     0.185165
   3   -1    0 1    1.663232     0.237572     0.221142
   3   -1    1 1    1.628002     0.243261     0.244109
   3   -1    2 1    1.534387     0.041064     0.042289
   3   -1    3 1    1.408843    84.706909    92.271013
   3   -1    4 1    1.275650    95.803566    88.535517
   3   -1    5 1    1.149461     8.522285     8.778613
   3   -1    6 1    1.036499    32.238868    32.077254
   3    0    0 1    1.466833    73.490554    86.357380
   3    0    1 1    1.442497     0.117765     0.124528
   3    0    2 1    1.376167   146.159548   162.928437
   3    0    3 1    1.283421    38.137307    37.383294
   3    0    4 1    1.180313    19.428772    18.266085
   3    0    5 1    1.078243     3.987122     3.703871
   4   -2    0 1    1.270315   241.891292   240.753624
   4   -2    1 1    1.254409     0.083192     0.092480
   4   -2    2 1    1.210054     0.715868     0.789640
   4   -2    3 1    1.145553    35.252930    35.926138
   4   -2    4 1    1.070436   175.889332   176.138556
   4   -1    0 1    1.220479     0.041193     0.043585
   4   -1    1 1    1.206353     0.252179     0.276142
   4   -1    2 1    1.166746     0.015854     0.015931
   4   -1    3 1    1.108605    63.432855    62.313181
   4   -1    4 1    1.040105    66.007604    62.616862
   4    0    0 1    1.100125    43.306608    45.462370
   4    0    1 1    1.089745     0.102569     0.100621
   4    0    2 1    1.060285    80.677621    87.539354
   4    0    3 1    1.016085    29.797115    31.145440
   5   -2    0 1    1.009544     0.021678     0.023729
loop_
	_pd_meas_2theta_scan
	_pd_proc_intensity_total
	_pd_proc_ls_weight
	_pd_calc_intensity_total
	_pd_proc_intensity_bkg_calc
  10.000000   272.000000     0.003676   275.525868     0.000000 
  10.020000   309.000000     0.003236   275.137047     0.000000 
  10.040000   301.000000     0.003322   274.749104     0.000000 
  10.060000   277.000000     0.003610   274.362044     0.000000 
  10.080000   279.000000     0.003584   273.975869     0.000000 
  10.100000   318.000000     0.003145   273.590584     0.000000 
  10.120000   315.000000     0.003175   273.206194     0.000000 
  10.140000   296.000000     0.003378   272.822703     0.000000 
  10.160000   301.000000     0.003322   272.440119     0.000000 
  10.180000   295.000000     0.003390   272.058447     0.000000 
  10.200000   273.000000     0.003663   271.677695     0.000000 
  10.220000   308.000000     0.003247   271.297871     0.000000 
  10.240000   322.000000     0.003106   270.918987     0.000000 
  10.260000   297.000000     0.003367   270.541051     0.000000 
  10.280000   255.000000     0.003922   270.164078     0.000000 
  10.300000   323.000000     0.003096   269.788081     0.000000 
  10.320000   268.000000     0.003731   269.413076     0.000000 
  10.340000   321.000000     0.003115   269.039081     0.000000 
  10.360000   285.000000     0.003509   268.666118     0.000000 
  10.380000   284.000000     0.003521   268.294209     0.000000 
  10.400000   270.000000     0.003704   267.923382     0.000000 
  10.420000   287.000000     0.003484   267.553669     0.000000 
  10.440000   266.000000     0.003759   267.185106     0.000000 
  10.460000   294.000000     0.003401   266.817734     0.000000 
  10.480000   284.000000     0.003521   266.451602     0.000000 
  10.500000   315.000000     0.003175   266.086765     0.000000 
  10.520000   266.000000     0.003759   265.723292     0.000000 
  10.540000   273.000000     0.003663   265.361257     0.000000 
  10.560000   277.000000     0.003610   265.000755     0.000000 
  10.580000   278.000000     0.003597   264.641892     0.000000 
  10.600000   260.000000     0.003846   264.284799     0.000000 
  10.620000   278.000000     0.003597   263.929631     0.000000 
  10.640000   289.000000     0.003460   263.576576     0.000000 
  10.660000   296.000000     0.003378   263.225863     0.000000 
  10.680000   270.000000     0.003704   262.877771     0.000000 
  10.700000   256.000000     0.003906   262.532647     0.000000 
  10.720000   294.000000     0.003401   262.190921     0.000000 
  10.740000   280.000000     0.003571   261.853136     0.000000 
  10.760000   274.000000     0.003650   261.519979     0.000000 
  10.780000   282.000000     0.003546   261.192336     0.000000 
  10.800000   292.000000     0.003425   260.871359     0.000000 
  10.820000   318.000000     0.003145   260.558570     0.000000 
  10.840000   306.000000     0.003268   260.256036     0.000000 
  10.860000   289.000000     0.003460   259.966723     0.000000 
  10.880000   276.000000     0.003623   259.695402     0.000000 
  10.900000   288.000000     0.003472   259.451278     0.000000 
  10.920000   279.000000     0.003584   259.255138     0.000000 
  10.940000   283.000000     0.003534   259.156161     0.000000 
  10.960000   297.000000     0.003367   259.263390     0.000000 
  10.980000   301.000000     0.003322   259.787174     0.000000 
  11.000000   287.000000     0.003484   261.060623     0.000000 
  11.020000   298.000000     0.003356   263.481856     0.000000 
  11.040000   306.000000     0.003268   267.325531     0.000000 
  11.060000   293.000000     0.003413   272.451182     0.000000 
  11.080000   282.000000     0.003546   278.030675     0.000000 
  11.100000   353.000000     0.002833   282.433839     0.000000 
  11.120000   319.000000     0.003135   283.647111     0.000000 
  11.140000   326.000000     0.003067   280.827823     0.000000 
  11.160000   292.000000     0.003425   275.266790     0.000000 
  11.180000   284.000000     0.003521   268.984573     0.000000 
  11.200000   286.000000     0.003497   263.426075     0.000000 
  11.220000   260.000000     0.003846   259.236854     0.000000 
  11.240000   250.000000     0.004000   256.430584     0.000000 
  11.260000   266.000000     0.003759   254.679064     0.000000 
  11.280000   290.000000     0.003448   253.587823     0.000000 
  11.300000   283.000000     0.003534   252.851858     0.000000 
  11.320000   239.000000     0.004184   252.288454     0.000000 
  11.340000   260.000000     0.003846   251.806475     0.000000 
  11.360000   277.000000     0.003610   251.365770     0.000000 
  11.380000   260.000000     0.003846   250.949371     0.000000 
  11.400000   271.000000     0.003690   250.549540     0.000000 
  11.420000   254.000000     0.003937   250.162076     0.000000 
  11.440000   256.000000     0.003906   249.784277     0.000000 
  11.460000   304.000000     0.003289   249.414226     0.000000 
  11.480000   227.000000     0.004405   249.050498     0.000000 
  11.500000   276.000000     0.003623   248.692011     0.000000 
  11.520000   269.000000     0.003717   248.337930     0.000000 
  11.540000   275.000000     0.003636   247.987602     0.000000 
  11.560000   253.000000     0.003953   247.640513     0.000000 
  11.580000   240.000000     0.004167   247.296252     0.000000 
  11.600000   267.000000     0.003745   246.954488     0.000000 
  11.620000   253.000000     0.003953   246.614952     0.000000 
  11.640000   263.000000     0.003802   246.277424     0.000000 
  11.660000   283.000000     0.003534   245.941723     0.000000 
  11.680000   261.000000     0.003831   245.607696     0.000000 
  11.700000   261.000000     0.003831   245.275218     0.000000 
  11.720000   226.000000     0.004425   244.944182     0.000000 
  11.740000   247.000000     0.004049   244.614497     0.000000 
  11.760000   271.000000     0.003690   244.286088     0.000000 
  11.780000   257.000000     0.003891   243.958887     0.000000 
  11.800000   246.000000     0.004065   243.632839     0.000000 
  11.820000   268.000000     0.003731   243.307895     0.000000 
  11.840000   256.000000     0.003906   242.984011     0.000000 
  11.860000   268.000000     0.003731   242.661150     0.000000 
  11.880000   258.000000     0.003876   242.339281     0.000000 
  11.900000   231.000000     0.004329   242.018374     0.000000 
  11.920000   266.000000     0.003759   241.698405     0.000000 
  11.940000   254.000000     0.003937   241.379350     0.000000 
  11.960000   250.000000     0.004000   241.061189     0.000000 
  11.980000   267.000000     0.003745   240.743906     0.000000 
  12.000000   235.000000     0.004255   240.427484     0.000000 
  12.020000   264.000000     0.003788   240.111908     0.000000 
  12.040000   266.000000     0.003759   239.797166     0.000000 
  12.060000   247.000000     0.004049   239.483245     0.000000 
  12.080000   270.000000     0.003704   239.170137     0.000000 
  12.100000   241.000000     0.004149   238.857829     0.000000 
  12.120000   233.000000     0.004292   238.546315     0.000000 
  12.140000   245.000000     0.004082   238.235585     0.000000 
  12.160000   248.000000     0.004032   237.925633     0.000000 
  12.180000   229.000000     0.004367   237.616451     0.000000 
  12.200000   237.000000     0.004219   237.308033     0.000000 
  12.220000   234.000000     0.004274   237.000374     0.000000 
  12.240000   228.000000     0.004386   236.693467     0.000000 
  12.260000   264.000000     0.003788   236.387308     0.000000 
  12.280000   218.000000     0.004587   236.081893     0.000000 
  12.300000   265.000000     0.003774   235.777216     0.000000 
  12.320000   228.000000     0.004386   235.473273     0.000000 
  12.340000   236.000000     0.004237   235.170061     0.000000 
  12.360000   228.000000     0.004386   234.867577     0.000000 
  12.380000   230.000000     0.004348   234.565815     0.000000 
  12.400000   227.000000     0.004405   234.264774     0.000000 
  12.420000   226.000000     0.004425   233.964451     0.000000 
  12.440000   243.000000     0.004115   233.664841     0.000000 
  12.460000   247.000000     0.004049   233.365943     0.000000 
  12.480000   219.000000     0.004566   233.067753     0.000000 
  12.500000   245.000000     0.004082   232.770270     0.000000 
  12.520000   230.000000     0.004348   232.473490     0.000000 
  12.540000   241.000000     0.004149   232.177412     0.000000 
  12.560000   244.000000     0.004098   231.882032     0.000000 
  12.580000   265.000000     0.003774   231.587350     0.000000 
  12.600000   212.000000     0.004717   231.293362     0.000000 
  12.620000   237.000000     0.004219   231.000067     0.000000 
  12.640000   248.000000     0.004032   230.707462     0.000000 
  12.660000   267.000000     0.003745   230.415546     0.000000 
  12.680000   213.000000     0.004695   230.124318     0.000000 
  12.700000   227.000000     0.004405   229.833774     0.000000 
  12.720000   229.000000     0.004367   229.543914     0.000000 
  12.740000   237.000000     0.004219   229.254735     0.000000 
  12.760000   243.000000     0.004115   228.966236     0.000000 
  12.780000   239.000000     0.004184   228.678416     0.000000 
  12.800000   247.000000     0.004049   228.391272     0.000000 
  12.820000   223.000000     0.004484   228.104803     0.000000 
  12.840000   223.000000     0.004484   227.819008     0.000000 
  12.860000   228.000000     0.004386   227.533885     0.000000 
  12.880000   257.000000     0.003891   227.249432     0.000000 
  12.900000   228.000000     0.004386   226.965649     0.000000 
  12.920000   246.000000     0.004065   226.682533     0.000000 
  12.940000   220.000000     0.004545   226.389314     0.000000 
  12.960000   232.000000     0.004310   226.107762     0.000000 
  12.980000   213.000000     0.004695   225.826865     0.000000 
  13.000000   249.000000     0.004016   225.546624     0.000000 
  13.020000   221.000000     0.004525   225.267037     0.000000 
  13.040000   230.000000     0.004348   224.988102     0.000000 
  13.060000   202.000000     0.004950   224.709820     0.000000 
  13.080000   254.000000     0.003937   224.432188     0.000000 
  13.100000   218.000000     0.004587   224.155206     0.000000 
  13.120000   198.000000     0.005051   223.878873     0.000000 
  13.140000   212.000000     0.004717   223.603188     0.000000 
  13.160000   207.000000     0.004831   223.328149     0.000000 
  13.180000   245.000000     0.004082   223.053756     0.000000 
  13.200000   235.000000     0.004255   222.780008     0.000000 
  13.220000   200.000000     0.005000   222.506903     0.000000 
  13.240000   194.000000     0.005155   222.234441     0.000000 
  13.260000   222.000000     0.004505   221.962621     0.000000 
  13.280000   220.000000     0.004545   221.691441     0.000000 
  13.300000   214.000000     0.004673   221.420900     0.000000 
  13.320000   233.000000     0.004292   221.150998     0.000000 
  13.340000   190.000000     0.005263   220.881734     0.000000 
  13.360000   218.000000     0.004587   220.613106     0.000000 
  13.380000   206.000000     0.004854   220.345113     0.000000 
  13.400000   199.000000     0.005025   220.077755     0.000000 
  13.420000   232.000000     0.004310   219.811030     0.000000 
  13.440000   225.000000     0.004444   219.544937     0.000000 
  13.460000   240.000000     0.004167   219.279476     0.000000 
  13.480000   235.000000     0.004255   219.014645     0.000000 
  13.500000   212.000000     0.004717   218.750443     0.000000 
  13.520000   251.000000     0.003984   218.486869     0.000000 
  13.540000   242.000000     0.004132   218.223923     0.000000 
  13.560000   229.000000     0.004367   217.961603     0.000000 
  13.580000   230.000000     0.004348   217.699908     0.000000 
  13.600000   241.000000     0.004149   217.438838     0.000000 
  13.620000   231.000000     0.004329   217.178391     0.000000 
  13.640000   196.000000     0.005102   216.918565     0.000000 
  13.660000   218.000000     0.004587   216.659361     0.000000 
  13.680000   224.000000     0.004464   216.400778     0.000000 
  13.700000   229.000000     0.004367   216.142813     0.000000 
  13.720000   198.000000     0.005051   215.885466     0.000000 
  13.740000   211.000000     0.004739   215.628737     0.000000 
  13.760000   229.000000     0.004367   215.372624     0.000000 
  13.780000   210.000000     0.004762   215.117126     0.000000 
  13.800000   206.000000     0.004854   214.862242     0.000000 
  13.820000   214.000000     0.004673   214.607971     0.000000 
  13.840000   198.000000     0.005051   214.354312     0.000000 
  13.860000   228.000000     0.004386   214.101265     0.000000 
  13.880000   223.000000     0.004484   213.848828     0.000000 
  13.900000   233.000000     0.004292   213.596999     0.000000 
  13.920000   227.000000     0.004405   213.345779     0.000000 
  13.940000   207.000000     0.004831   213.095166     0.000000 
  13.960000   215.000000     0.004651   212.845159     0.000000 
  13.980000   208.000000     0.004808   212.595758     0.000000 
  14.000000   202.000000     0.004950   212.346960     0.000000 
  14.020000   195.000000     0.005128   212.098766     0.000000 
  14.040000   188.000000     0.005319   211.851174     0.000000 
  14.060000   217.000000     0.004608   211.604183     0.000000 
  14.080000   219.000000     0.004566   211.357792     0.000000 
  14.100000   200.000000     0.005000   211.112000     0.000000 
  14.120000   197.000000     0.005076   210.866807     0.000000 
  14.140000   211.000000     0.004739   210.622211     0.000000 
  14.160000   178.000000     0.005618   210.378211     0.000000 
  14.180000   176.000000     0.005682   210.134806     0.000000 
  14.200000   219.000000     0.004566   209.891996     0.000000 
  14.220000   183.000000     0.005464   209.649779     0.000000 
  14.240000   222.000000     0.004505   209.408154     0.000000 
  14.260000   193.000000     0.005181   209.167121     0.000000 
  14.280000   201.000000     0.004975   208.926678     0.000000 
  14.300000   195.000000     0.005128   208.686824     0.000000 
  14.320000   202.000000     0.004950   208.447559     0.000000 
  14.340000   181.000000     0.005525   208.208881     0.000000 
  14.360000   201.000000     0.004975   207.970789     0.000000 
  14.380000   205.000000     0.004878   207.733283     0.000000 
  14.400000   214.000000     0.004673   207.496362     0.000000 
  14.420000   201.000000     0.004975   207.260024     0.000000 
  14.440000   211.000000     0.004739   207.024268     0.000000 
  14.460000   194.000000     0.005155   206.789095     0.000000 
  14.480000   192.000000     0.005208   206.554501     0.000000 
  14.500000   195.000000     0.005128   206.320488     0.000000 
  14.520000   213.000000     0.004695   206.087053     0.000000 
  14.540000   204.000000     0.004902   205.854196     0.000000 
  14.560000   210.000000     0.004762   205.621915     0.000000 
  14.580000   205.000000     0.004878   205.390210     0.000000 
  14.600000   199.000000     0.005025   205.159080     0.000000 
  14.620000   198.000000     0.005051   204.928524     0.000000 
  14.640000   170.000000     0.005882   204.698541     0.000000 
  14.660000   206.000000     0.004854   204.469130     0.000000 
  14.680000   186.000000     0.005376   204.240289     0.000000 
  14.700000   173.000000     0.005780   204.012019     0.000000 
  14.720000   215.000000     0.004651   203.784318     0.000000 
  14.740000   194.000000     0.005155   203.557184     0.000000 
  14.760000   179.000000     0.005587   203.330618     0.000000 
  14.780000   195.000000     0.005128   203.104618     0.000000 
  14.800000   166.000000     0.006024   202.879184     0.000000 
  14.820000   198.000000     0.005051   202.654313     0.000000 
  14.840000   191.000000     0.005236   202.430006     0.000000 
  14.860000   204.000000     0.004902   202.206261     0.000000 
  14.880000   170.000000     0.005882   201.983078     0.000000 
  14.900000   173.000000     0.005780   201.760455     0.000000 
  14.920000   179.000000     0.005587   201.538391     0.000000 
  14.940000   188.000000     0.005319   201.316886     0.000000 
  14.960000   210.000000     0.004762   201.095939     0.000000 
  14.980000   191.000000     0.005236   200.875548     0.000000 
  15.000000   198.000000     0.005051   200.655713     0.000000 
  15.020000   192.000000     0.005208   200.436433     0.000000 
  15.040000   201.000000     0.004975   200.217706     0.000000 
  15.060000   197.000000     0.005076   199.999533     0.000000 
  15.080000   193.000000     0.005181   199.781911     0.000000 
  15.100000   164.000000     0.006098   199.564840     0.000000 
  15.120000   183.000000     0.005464   199.348320     0.000000 
  15.140000   205.000000     0.004878   199.132348     0.000000 
  15.160000   165.000000     0.006061   198.916925     0.000000 
  15.180000   220.000000     0.004545   198.702049     0.000000 
  15.200000   173.000000     0.005780   198.487719     0.000000 
  15.220000   178.000000     0.005618   198.273935     0.000000 
  15.240000   188.000000     0.005319   198.060695     0.000000 
  15.260000   180.000000     0.005556   197.847998     0.000000 
  15.280000   184.000000     0.005435   197.635844     0.000000 
  15.300000   184.000000     0.005435   197.424232     0.000000 
  15.320000   183.000000     0.005464   197.213160     0.000000 
  15.340000   151.000000     0.006623   197.002629     0.000000 
  15.360000   214.000000     0.004673   196.792636     0.000000 
  15.380000   206.000000     0.004854   196.583181     0.000000 
  15.400000   207.000000     0.004831   196.374263     0.000000 
  15.420000   204.000000     0.004902   196.165881     0.000000 
  15.440000   186.000000     0.005376   195.958034     0.000000 
  15.460000   159.000000     0.006289   195.750721     0.000000 
  15.480000   191.000000     0.005236   195.543942     0.000000 
  15.500000   165.000000     0.006061   195.337695     0.000000 
  15.520000   199.000000     0.005025   195.131979     0.000000 
  15.540000   179.000000     0.005587   194.926794     0.000000 
  15.560000   181.000000     0.005525   194.722139     0.000000 
  15.580000   181.000000     0.005525   194.518012     0.000000 
  15.600000   182.000000     0.005495   194.314413     0.000000 
  15.620000   166.000000     0.006024   194.111341     0.000000 
  15.640000   176.000000     0.005682   193.908795     0.000000 
  15.660000   214.000000     0.004673   193.706773     0.000000 
  15.680000   174.000000     0.005747   193.505276     0.000000 
  15.700000   161.000000     0.006211   193.304302     0.000000 
  15.720000   171.000000     0.005848   193.103851     0.000000 
  15.740000   203.000000     0.004926   192.903921     0.000000 
  15.760000   172.000000     0.005814   192.704511     0.000000 
  15.780000   164.000000     0.006098   192.505621     0.000000 
  15.800000   169.000000     0.005917   192.307249     0.000000 
  15.820000   187.000000     0.005348   192.109395     0.000000 
  15.840000   142.000000     0.007042   191.912058     0.000000 
  15.860000   179.000000     0.005587   191.715237     0.000000 
  15.880000   179.000000     0.005587   191.518931     0.000000 
  15.900000   185.000000     0.005405   191.323139     0.000000 
  15.920000   184.000000     0.005435   191.127860     0.000000 
  15.940000   164.000000     0.006098   190.933094     0.000000 
  15.960000   211.000000     0.004739   190.738839     0.000000 
  15.980000   186.000000     0.005376   190.545094     0.000000 
  16.000000   181.000000     0.005525   190.351859     0.000000 
  16.020000   175.000000     0.005714   190.159133     0.000000 
  16.040000   188.000000     0.005319   189.966915     0.000000 
  16.060000   170.000000     0.005882   189.775203     0.000000 
  16.080000   202.000000     0.004950   189.583998     0.000000 
  16.100000   164.000000     0.006098   189.393298     0.000000 
  16.120000   174.000000     0.005747   189.203101     0.000000 
  16.140000   186.000000     0.005376   189.013409     0.000000 
  16.160000   180.000000     0.005556   188.824218     0.000000 
  16.180000   192.000000     0.005208   188.635530     0.000000 
  16.200000   163.000000     0.006135   188.447341     0.000000 
  16.220000   189.000000     0.005291   188.259653     0.000000 
  16.240000   179.000000     0.005587   188.072464     0.000000 
  16.260000   157.000000     0.006369   187.885772     0.000000 
  16.280000   169.000000     0.005917   187.699578     0.000000 
  16.300000   148.000000     0.006757   187.513880     0.000000 
  16.320000   188.000000     0.005319   187.328677     0.000000 
  16.340000   176.000000     0.005682   187.143969     0.000000 
  16.360000   168.000000     0.005952   186.959754     0.000000 
  16.380000   167.000000     0.005988   186.776032     0.000000 
  16.400000   169.000000     0.005917   186.592802     0.000000 
  16.420000   180.000000     0.005556   186.410062     0.000000 
  16.440000   175.000000     0.005714   186.227813     0.000000 
  16.460000   166.000000     0.006024   186.046053     0.000000 
  16.480000   146.000000     0.006849   185.864781     0.000000 
  16.500000   149.000000     0.006711   185.683997     0.000000 
  16.520000   195.000000     0.005128   185.503699     0.000000 
  16.540000   145.000000     0.006897   185.323887     0.000000 
  16.560000   176.000000     0.005682   185.144560     0.000000 
  16.580000   157.000000     0.006369   184.965717     0.000000 
  16.600000   182.000000     0.005495   184.787356     0.000000 
  16.620000   168.000000     0.005952   184.609478     0.000000 
  16.640000   164.000000     0.006098   184.432081     0.000000 
  16.660000   167.000000     0.005988   184.255165     0.000000 
  16.680000   157.000000     0.006369   184.078728     0.000000 
  16.700000   172.000000     0.005814   183.902770     0.000000 
  16.720000   164.000000     0.006098   183.727290     0.000000 
  16.740000   185.000000     0.005405   183.552286     0.000000 
  16.760000   151.000000     0.006623   183.377759     0.000000 
  16.780000   186.000000     0.005376   183.203707     0.000000 
  16.800000   176.000000     0.005682   183.030130     0.000000 
  16.820000   145.000000     0.006897   182.857026     0.000000 
  16.840000   165.000000     0.006061   182.684394     0.000000 
  16.860000   136.000000     0.007353   182.512235     0.000000 
  16.880000   158.000000     0.006329   182.340546     0.000000 
  16.900000   168.000000     0.005952   182.169328     0.000000 
  16.920000   171.000000     0.005848   181.998578     0.000000 
  16.940000   168.000000     0.005952   181.828297     0.000000 
  16.960000   184.000000     0.005435   181.658484     0.000000 
  16.980000   178.000000     0.005618   181.489137     0.000000 
  17.000000   181.000000     0.005525   181.320256     0.000000 
  17.020000   174.000000     0.005747   181.151840     0.000000 
  17.040000   152.000000     0.006579   180.983888     0.000000 
  17.060000   179.000000     0.005587   180.816400     0.000000 
  17.080000   151.000000     0.006623   180.649374     0.000000 
  17.100000   168.000000     0.005952   180.482809     0.000000 
  17.120000   170.000000     0.005882   180.316705     0.000000 
  17.140000   157.000000     0.006369   180.151061     0.000000 
  17.160000   182.000000     0.005495   179.985876     0.000000 
  17.180000   162.000000     0.006173   179.821149     0.000000 
  17.200000   167.000000     0.005988   179.656879     0.000000 
  17.220000   159.000000     0.006289   179.493066     0.000000 
  17.240000   172.000000     0.005814   179.329708     0.000000 
  17.260000   168.000000     0.005952   179.166806     0.000000 
  17.280000   187.000000     0.005348   179.004357     0.000000 
  17.300000   183.000000     0.005464   178.842361     0.000000 
  17.320000   171.000000     0.005848   178.680818     0.000000 
  17.340000   178.000000     0.005618   178.519726     0.000000 
  17.360000   176.000000     0.005682   178.359085     0.000000 
  17.380000   169.000000     0.005917   178.198893     0.000000 
  17.400000   174.000000     0.005747   178.039150     0.000000 
  17.420000   168.000000     0.005952   177.879856     0.000000 
  17.440000   174.000000     0.005747   177.721008     0.000000 
  17.460000   191.000000     0.005236   177.562607     0.000000 
  17.480000   187.000000     0.005348   177.404652     0.000000 
  17.500000   170.000000     0.005882   177.247141     0.000000 
  17.520000   183.000000     0.005464   177.090075     0.000000 
  17.540000   192.000000     0.005208   176.933451     0.000000 
  17.560000   185.000000     0.005405   176.777270     0.000000 
  17.580000   173.000000     0.005780   176.621530     0.000000 
  17.600000   180.000000     0.005556   176.466230     0.000000 
  17.620000   159.000000     0.006289   176.311371     0.000000 
  17.640000   184.000000     0.005435   176.156950     0.000000 
  17.660000   168.000000     0.005952   176.002968     0.000000 
  17.680000   175.000000     0.005714   175.849423     0.000000 
  17.700000   154.000000     0.006494   175.696314     0.000000 
  17.720000   178.000000     0.005618   175.543641     0.000000 
  17.740000   152.000000     0.006579   175.391403     0.000000 
  17.760000   171.000000     0.005848   175.239599     0.000000 
  17.780000   196.000000     0.005102   175.088228     0.000000 
  17.800000   185.000000     0.005405   174.937290     0.000000 
  17.820000   181.000000     0.005525   174.786783     0.000000 
  17.840000   170.000000     0.005882   174.636706     0.000000 
  17.860000   181.000000     0.005525   174.487060     0.000000 
  17.880000   185.000000     0.005405   174.337843     0.000000 
  17.900000   169.000000     0.005917   174.189054     0.000000 
  17.920000   197.000000     0.005076   174.040693     0.000000 
  17.940000   148.000000     0.006757   173.892758     0.000000 
  17.960000   159.000000     0.006289   173.745250     0.000000 
  17.980000   178.000000     0.005618   173.598166     0.000000 
  18.000000   156.000000     0.006410   173.451507     0.000000 
  18.020000   176.000000     0.005682   173.305271     0.000000 
  18.040000   176.000000     0.005682   173.159457     0.000000 
  18.060000   176.000000     0.005682   173.014066     0.000000 
  18.080000   188.000000     0.005319   172.869095     0.000000 
  18.100000   177.000000     0.005650   172.724545     0.000000 
  18.120000   185.000000     0.005405   172.580414     0.000000 
  18.140000   157.000000     0.006369   172.436702     0.000000 
  18.160000   175.000000     0.005714   172.293407     0.000000 
  18.180000   147.000000     0.006803   172.150530     0.000000 
  18.200000   183.000000     0.005464   172.008069     0.000000 
  18.220000   169.000000     0.005917   171.866023     0.000000 
  18.240000   149.000000     0.006711   171.724392     0.000000 
  18.260000   168.000000     0.005952   171.583175     0.000000 
  18.280000   153.000000     0.006536   171.442370     0.000000 
  18.300000   180.000000     0.005556   171.301978     0.000000 
  18.320000   155.000000     0.006452   171.161997     0.000000 
  18.340000   153.000000     0.006536   171.022427     0.000000 
  18.360000   145.000000     0.006897   170.883267     0.000000 
  18.380000   175.000000     0.005714   170.744516     0.000000 
  18.400000   176.000000     0.005682   170.606173     0.000000 
  18.420000   167.000000     0.005988   170.468237     0.000000 
  18.440000   179.000000     0.005587   170.330708     0.000000 
  18.460000   180.000000     0.005556   170.193585     0.000000 
  18.480000   168.000000     0.005952   170.056868     0.000000 
  18.500000   140.000000     0.007143   169.920554     0.000000 
  18.520000   149.000000     0.006711   169.784644     0.000000 
  18.540000   179.000000     0.005587   169.649137     0.000000 
  18.560000   158.000000     0.006329   169.514031     0.000000 
  18.580000   165.000000     0.006061   169.379327     0.000000 
  18.600000   152.000000     0.006579   169.245023     0.000000 
  18.620000   153.000000     0.006536   169.111119     0.000000 
  18.640000   162.000000     0.006173   168.977614     0.000000 
  18.660000   169.000000     0.005917   168.844506     0.000000 
  18.680000   156.000000     0.006410   168.711796     0.000000 
  18.700000   160.000000     0.006250   168.579483     0.000000 
  18.720000   159.000000     0.006289   168.447565     0.000000 
  18.740000   151.000000     0.006623   168.498714     0.000000 
  18.760000   158.000000     0.006329   168.372827     0.000000 
  18.780000   161.000000     0.006211   168.247562     0.000000 
  18.800000   162.000000     0.006173   168.122931     0.000000 
  18.820000   166.000000     0.006024   167.998949     0.000000 
  18.840000   164.000000     0.006098   167.875631     0.000000 
  18.860000   154.000000     0.006494   167.752992     0.000000 
  18.880000   157.000000     0.006369   167.631050     0.000000 
  18.900000   153.000000     0.006536   167.509824     0.000000 
  18.920000   165.000000     0.006061   167.389334     0.000000 
  18.940000   163.000000     0.006135   167.269602     0.000000 
  18.960000   143.000000     0.006993   167.150653     0.000000 
  18.980000   175.000000     0.005714   167.032512     0.000000 
  19.000000   157.000000     0.006369   166.915207     0.000000 
  19.020000   166.000000     0.006024   166.798772     0.000000 
  19.040000   159.000000     0.006289   166.683238     0.000000 
  19.060000   166.000000     0.006024   166.568643     0.000000 
  19.080000   169.000000     0.005917   166.455028     0.000000 
  19.100000   186.000000     0.005376   166.342437     0.000000 
  19.120000   144.000000     0.006944   166.230919     0.000000 
  19.140000   164.000000     0.006098   166.120528     0.000000 
  19.160000   169.000000     0.005917   166.011323     0.000000 
  19.180000   161.000000     0.006211   165.903370     0.000000 
  19.200000   165.000000     0.006061   165.796741     0.000000 
  19.220000   168.000000     0.005952   165.691516     0.000000 
  19.240000   136.000000     0.007353   165.587784     0.000000 
  19.260000   160.000000     0.006250   165.485644     0.000000 
  19.280000   153.000000     0.006536   165.385206     0.000000 
  19.300000   166.000000     0.006024   165.286594     0.000000 
  19.320000   159.000000     0.006289   165.189945     0.000000 
  19.340000   149.000000     0.006711   165.095414     0.000000 
  19.360000   156.000000     0.006410   165.003177     0.000000 
  19.380000   168.000000     0.005952   164.913429     0.000000 
  19.400000   150.000000     0.006667   164.826395     0.000000 
  19.420000   154.000000     0.006494   164.742327     0.000000 
  19.440000   116.000000     0.008621   164.661515     0.000000 
  19.460000   162.000000     0.006173   164.584289     0.000000 
  19.480000   159.000000     0.006289   164.511028     0.000000 
  19.500000   167.000000     0.005988   164.442168     0.000000 
  19.520000   155.000000     0.006452   164.378215     0.000000 
  19.540000   170.000000     0.005882   164.319755     0.000000 
  19.560000   158.000000     0.006329   164.267474     0.000000 
  19.580000   172.000000     0.005814   164.222173     0.000000 
  19.600000   174.000000     0.005747   164.184800     0.000000 
  19.620000   158.000000     0.006329   164.156476     0.000000 
  19.640000   140.000000     0.007143   164.138537     0.000000 
  19.660000   149.000000     0.006711   164.132588     0.000000 
  19.680000   172.000000     0.005814   164.140567     0.000000 
  19.700000   164.000000     0.006098   164.164829     0.000000 
  19.720000   179.000000     0.005587   164.208266     0.000000 
  19.740000   161.000000     0.006211   164.274450     0.000000 
  19.760000   179.000000     0.005587   164.367843     0.000000 
  19.780000   184.000000     0.005435   164.494066     0.000000 
  19.800000   183.000000     0.005464   164.660288     0.000000 
  19.820000   156.000000     0.006410   164.875753     0.000000 
  19.840000   165.000000     0.006061   165.152545     0.000000 
  19.860000   176.000000     0.005682   165.506688     0.000000 
  19.880000   172.000000     0.005814   165.959786     0.000000 
  19.900000   144.000000     0.006944   166.541484     0.000000 
  19.920000   189.000000     0.005291   167.293299     0.000000 
  19.940000   172.000000     0.005814   168.274709     0.000000 
  19.960000   190.000000     0.005263   169.573226     0.000000 
  19.980000   223.000000     0.004484   171.322280     0.000000 
  20.000000   247.000000     0.004049   173.738112     0.000000 
  20.020000   186.000000     0.005376   177.212122     0.000000 
  20.040000   256.000000     0.003906   182.554571     0.000000 
  20.060000   221.000000     0.004525   191.526219     0.000000 
  20.080000   260.000000     0.003846   207.559748     0.000000 
  20.100000   306.000000     0.003268   235.830600     0.000000 
  20.120000   340.000000     0.002941   280.981834     0.000000 
  20.140000   359.000000     0.002786   338.628773     0.000000 
  20.160000   368.000000     0.002717   375.605272     0.000000 
  20.180000   342.000000     0.002924   351.323943     0.000000 
  20.200000   309.000000     0.003236   293.956696     0.000000 
  20.220000   272.000000     0.003676   244.483927     0.000000 
  20.240000   246.000000     0.004065   212.229526     0.000000 
  20.260000   234.000000     0.004274   193.549945     0.000000 
  20.280000   194.000000     0.005155   183.053196     0.000000 
  20.300000   203.000000     0.004926   176.837346     0.000000 
  20.320000   183.000000     0.005464   172.800719     0.000000 
  20.340000   186.000000     0.005376   169.964971     0.000000 
  20.360000   196.000000     0.005102   167.868742     0.000000 
  20.380000   186.000000     0.005376   166.265520     0.000000 
  20.400000   154.000000     0.006494   165.006447     0.000000 
  20.420000   155.000000     0.006452   163.995002     0.000000 
  20.440000   169.000000     0.005917   163.166068     0.000000 
  20.460000   170.000000     0.005882   162.474463     0.000000 
  20.480000   181.000000     0.005525   161.888092     0.000000 
  20.500000   185.000000     0.005405   161.383677     0.000000 
  20.520000   162.000000     0.006173   160.944019     0.000000 
  20.540000   168.000000     0.005952   160.556200     0.000000 
  20.560000   175.000000     0.005714   160.210369     0.000000 
  20.580000   194.000000     0.005155   159.898912     0.000000 
  20.600000   171.000000     0.005848   159.615871     0.000000 
  20.620000   162.000000     0.006173   159.356533     0.000000 
  20.640000   197.000000     0.005076   159.117129     0.000000 
  20.660000   154.000000     0.006494   158.894619     0.000000 
  20.680000   156.000000     0.006410   158.686527     0.000000 
  20.700000   172.000000     0.005814   158.490822     0.000000 
  20.720000   177.000000     0.005650   158.305825     0.000000 
  20.740000   171.000000     0.005848   158.130138     0.000000 
  20.760000   171.000000     0.005848   157.962590     0.000000 
  20.780000   158.000000     0.006329   157.802195     0.000000 
  20.800000   154.000000     0.006494   157.648115     0.000000 
  20.820000   173.000000     0.005780   157.499639     0.000000 
  20.840000   161.000000     0.006211   157.356156     0.000000 
  20.860000   155.000000     0.006452   157.217142     0.000000 
  20.880000   171.000000     0.005848   157.082142     0.000000 
  20.900000   157.000000     0.006369   156.950763     0.000000 
  20.920000   151.000000     0.006623   156.822662     0.000000 
  20.940000   167.000000     0.005988   156.697540     0.000000 
  20.960000   174.000000     0.005747   156.575135     0.000000 
  20.980000   154.000000     0.006494   156.455213     0.000000 
  21.000000   177.000000     0.005650   156.337571     0.000000 
  21.020000   166.000000     0.006024   156.222028     0.000000 
  21.040000   182.000000     0.005495   156.137482     0.000000 
  21.060000   159.000000     0.006289   156.026585     0.000000 
  21.080000   153.000000     0.006536   155.917397     0.000000 
  21.100000   177.000000     0.005650   155.809808     0.000000 
  21.120000   159.000000     0.006289   155.703717     0.000000 
  21.140000   177.000000     0.005650   155.599035     0.000000 
  21.160000   153.000000     0.006536   155.495683     0.000000 
  21.180000   169.000000     0.005917   155.393587     0.000000 
  21.200000   174.000000     0.005747   155.292685     0.000000 
  21.220000   182.000000     0.005495   155.192919     0.000000 
  21.240000   158.000000     0.006329   155.094237     0.000000 
  21.260000   185.000000     0.005405   154.996594     0.000000 
  21.280000   133.000000     0.007519   154.899948     0.000000 
  21.300000   133.000000     0.007519   154.804264     0.000000 
  21.320000   159.000000     0.006289   154.709508     0.000000 
  21.340000   156.000000     0.006410   154.615654     0.000000 
  21.360000   152.000000     0.006579   154.522677     0.000000 
  21.380000   158.000000     0.006329   154.430556     0.000000 
  21.400000   163.000000     0.006135   154.339273     0.000000 
  21.420000   161.000000     0.006211   154.248816     0.000000 
  21.440000   161.000000     0.006211   154.159173     0.000000 
  21.460000   138.000000     0.007246   154.070336     0.000000 
  21.480000   163.000000     0.006135   153.982303     0.000000 
  21.500000   147.000000     0.006803   153.895072     0.000000 
  21.520000   171.000000     0.005848   153.808646     0.000000 
  21.540000   173.000000     0.005780   153.723033     0.000000 
  21.560000   181.000000     0.005525   153.638244     0.000000 
  21.580000   132.000000     0.007576   153.554293     0.000000 
  21.600000   141.000000     0.007092   153.471203     0.000000 
  21.620000   140.000000     0.007143   153.215028     0.000000 
  21.640000   147.000000     0.006803   153.193334     0.000000 
  21.660000   155.000000     0.006452   153.119052     0.000000 
  21.680000   152.000000     0.006579   153.045668     0.000000 
  21.700000   157.000000     0.006369   152.973254     0.000000 
  21.720000   151.000000     0.006623   152.901894     0.000000 
  21.740000   162.000000     0.006173   152.831682     0.000000 
  21.760000   179.000000     0.005587   152.762733     0.000000 
  21.780000   155.000000     0.006452   152.695178     0.000000 
  21.800000   145.000000     0.006897   152.629174     0.000000 
  21.820000   155.000000     0.006452   152.564908     0.000000 
  21.840000   148.000000     0.006757   152.502602     0.000000 
  21.860000   150.000000     0.006667   152.442526     0.000000 
  21.880000   167.000000     0.005988   152.385007     0.000000 
  21.900000   146.000000     0.006849   152.330446     0.000000 
  21.920000   127.000000     0.007874   152.279337     0.000000 
  21.940000   145.000000     0.006897   152.232297     0.000000 
  21.960000   158.000000     0.006329   152.190104     0.000000 
  21.980000   134.000000     0.007463   152.153750     0.000000 
  22.000000   160.000000     0.006250   152.124516     0.000000 
  22.020000   157.000000     0.006369   152.104075     0.000000 
  22.040000   163.000000     0.006135   152.094655     0.000000 
  22.060000   127.000000     0.007874   152.099263     0.000000 
  22.080000   158.000000     0.006329   152.122042     0.000000 
  22.100000   140.000000     0.007143   152.168820     0.000000 
  22.120000   165.000000     0.006061   152.247996     0.000000 
  22.140000   169.000000     0.005917   152.372009     0.000000 
  22.160000   156.000000     0.006410   152.559871     0.000000 
  22.180000   175.000000     0.005714   152.841696     0.000000 
  22.200000   174.000000     0.005747   153.267249     0.000000 
  22.220000   180.000000     0.005556   153.922997     0.000000 
  22.240000   195.000000     0.005128   154.968041     0.000000 
  22.260000   205.000000     0.004878   156.710353     0.000000 
  22.280000   201.000000     0.004975   159.752450     0.000000 
  22.300000   207.000000     0.004831   165.139498     0.000000 
  22.320000   209.000000     0.004785   173.482034     0.000000 
  22.340000   249.000000     0.004016   179.606310     0.000000 
  22.360000   236.000000     0.004237   174.823036     0.000000 
  22.380000   216.000000     0.004630   166.094216     0.000000 
  22.400000   198.000000     0.005051   160.088110     0.000000 
  22.420000   191.000000     0.005236   156.623469     0.000000 
  22.440000   154.000000     0.006494   154.599887     0.000000 
  22.460000   135.000000     0.007407   153.348322     0.000000 
  22.480000   181.000000     0.005525   152.524821     0.000000 
  22.500000   158.000000     0.006329   151.952872     0.000000 
  22.520000   128.000000     0.007812   151.537618     0.000000 
  22.540000   162.000000     0.006173   151.225154     0.000000 
  22.560000   157.000000     0.006369   150.983326     0.000000 
  22.580000   183.000000     0.005464   150.792216     0.000000 
  22.600000   158.000000     0.006329   150.639148     0.000000 
  22.620000   172.000000     0.005814   150.515945     0.000000 
  22.640000   138.000000     0.007246   150.417356     0.000000 
  22.660000   142.000000     0.007042   150.340149     0.000000 
  22.680000   160.000000     0.006250   150.282579     0.000000 
  22.700000   165.000000     0.006061   150.244097     0.000000 
  22.720000   150.000000     0.006667   150.225225     0.000000 
  22.740000   135.000000     0.007407   150.227561     0.000000 
  22.760000   164.000000     0.006098   150.253906     0.000000 
  22.780000   140.000000     0.007143   150.308545     0.000000 
  22.800000   156.000000     0.006410   150.397709     0.000000 
  22.820000   152.000000     0.006579   150.530333     0.000000 
  22.840000   166.000000     0.006024   150.719266     0.000000 
  22.860000   150.000000     0.006667   150.983222     0.000000 
  22.880000   164.000000     0.006098   151.350024     0.000000 
  22.900000   158.000000     0.006329   151.862209     0.000000 
  22.920000   184.000000     0.005435   152.587445     0.000000 
  22.940000   151.000000     0.006623   153.640176     0.000000 
  22.960000   195.000000     0.005128   155.230544     0.000000 
  22.980000   185.000000     0.005405   157.768248     0.000000 
  23.000000   198.000000     0.005051   162.032818     0.000000 
  23.020000   195.000000     0.005128   169.324909     0.000000 
  23.040000   191.000000     0.005236   181.209842     0.000000 
  23.060000   203.000000     0.004926   197.040219     0.000000 
  23.080000   185.000000     0.005405   206.632292     0.000000 
  23.100000   212.000000     0.004717   198.169316     0.000000 
  23.120000   159.000000     0.006289   182.151243     0.000000 
  23.140000   178.000000     0.005618   169.711595     0.000000 
  23.160000   170.000000     0.005882   161.962143     0.000000 
  23.180000   176.000000     0.005682   157.369038     0.000000 
  23.200000   188.000000     0.005319   154.588720     0.000000 
  23.220000   170.000000     0.005882   152.802723     0.000000 
  23.240000   163.000000     0.006135   151.577917     0.000000 
  23.260000   147.000000     0.006803   150.692464     0.000000 
  23.280000   146.000000     0.006849   150.026261     0.000000 
  23.300000   133.000000     0.007519   149.508641     0.000000 
  23.320000   151.000000     0.006623   149.095252     0.000000 
  23.340000   169.000000     0.005917   148.757034     0.000000 
  23.360000   152.000000     0.006579   148.474334     0.000000 
  23.380000   151.000000     0.006623   148.233497     0.000000 
  23.400000   142.000000     0.007042   148.024814     0.000000 
  23.420000   170.000000     0.005882   147.841235     0.000000 
  23.440000   146.000000     0.006849   147.677549     0.000000 
  23.460000   158.000000     0.006329   147.529834     0.000000 
  23.480000   156.000000     0.006410   147.395098     0.000000 
  23.500000   156.000000     0.006410   147.271025     0.000000 
  23.520000   155.000000     0.006452   147.155804     0.000000 
  23.540000   157.000000     0.006369   147.047996     0.000000 
  23.560000   142.000000     0.007042   146.946453     0.000000 
  23.580000   131.000000     0.007634   146.850247     0.000000 
  23.600000   150.000000     0.006667   146.758620     0.000000 
  23.620000   148.000000     0.006757   146.670950     0.000000 
  23.640000   150.000000     0.006667   146.586724     0.000000 
  23.660000   142.000000     0.007042   146.477185     0.000000 
  23.680000   151.000000     0.006623   146.399469     0.000000 
  23.700000   136.000000     0.007353   146.324067     0.000000 
  23.720000   162.000000     0.006173   146.250725     0.000000 
  23.740000   147.000000     0.006803   146.179225     0.000000 
  23.760000   128.000000     0.007812   146.109380     0.000000 
  23.780000   138.000000     0.007246   146.041030     0.000000 
  23.800000   138.000000     0.007246   145.974036     0.000000 
  23.820000   131.000000     0.007634   145.908278     0.000000 
  23.840000   155.000000     0.006452   145.843650     0.000000 
  23.860000   127.000000     0.007874   145.780060     0.000000 
  23.880000   131.000000     0.007634   145.717429     0.000000 
  23.900000   130.000000     0.007692   145.655683     0.000000 
  23.920000   151.000000     0.006623   145.594762     0.000000 
  23.940000   134.000000     0.007463   145.534609     0.000000 
  23.960000   155.000000     0.006452   145.475175     0.000000 
  23.980000   155.000000     0.006452   145.416415     0.000000 
  24.000000   157.000000     0.006369   145.358290     0.000000 
  24.020000   136.000000     0.007353   145.300764     0.000000 
  24.040000   151.000000     0.006623   145.243805     0.000000 
  24.060000   152.000000     0.006579   145.187386     0.000000 
  24.080000   145.000000     0.006897   145.131479     0.000000 
  24.100000   150.000000     0.006667   145.076062     0.000000 
  24.120000   135.000000     0.007407   145.021113     0.000000 
  24.140000   151.000000     0.006623   144.966612     0.000000 
  24.160000   160.000000     0.006250   144.912543     0.000000 
  24.180000   141.000000     0.007092   144.858888     0.000000 
  24.200000   140.000000     0.007143   144.805634     0.000000 
  24.220000   165.000000     0.006061   144.752767     0.000000 
  24.240000   144.000000     0.006944   144.700273     0.000000 
  24.260000   148.000000     0.006757   144.648143     0.000000 
  24.280000   136.000000     0.007353   144.596365     0.000000 
  24.300000   176.000000     0.005682   144.544929     0.000000 
  24.320000   154.000000     0.006494   144.493828     0.000000 
  24.340000   156.000000     0.006410   144.443051     0.000000 
  24.360000   170.000000     0.005882   144.392592     0.000000 
  24.380000   145.000000     0.006897   144.342444     0.000000 
  24.400000   154.000000     0.006494   144.292600     0.000000 
  24.420000   154.000000     0.006494   144.243053     0.000000 
  24.440000   131.000000     0.007634   144.193797     0.000000 
  24.460000   156.000000     0.006410   144.144829     0.000000 
  24.480000   136.000000     0.007353   144.096141     0.000000 
  24.500000   145.000000     0.006897   144.047730     0.000000 
  24.520000   128.000000     0.007812   143.999591     0.000000 
  24.540000   133.000000     0.007519   143.898174     0.000000 
  24.560000   158.000000     0.006329   143.852003     0.000000 
  24.580000   137.000000     0.007299   143.806036     0.000000 
  24.600000   142.000000     0.007042   143.760271     0.000000 
  24.620000   133.000000     0.007519   143.714709     0.000000 
  24.640000   136.000000     0.007353   143.669347     0.000000 
  24.660000   139.000000     0.007194   143.624187     0.000000 
  24.680000   156.000000     0.006410   143.579227     0.000000 
  24.700000   158.000000     0.006329   143.534467     0.000000 
  24.720000   154.000000     0.006494   143.489907     0.000000 
  24.740000   140.000000     0.007143   143.445545     0.000000 
  24.760000   140.000000     0.007143   143.401381     0.000000 
  24.780000   133.000000     0.007519   143.357415     0.000000 
  24.800000   151.000000     0.006623   143.313646     0.000000 
  24.820000   154.000000     0.006494   143.270074     0.000000 
  24.840000   147.000000     0.006803   143.226698     0.000000 
  24.860000   136.000000     0.007353   143.183518     0.000000 
  24.880000   121.000000     0.008264   143.140533     0.000000 
  24.900000   145.000000     0.006897   143.097742     0.000000 
  24.920000   131.000000     0.007634   143.055145     0.000000 
  24.940000   132.000000     0.007576   143.012742     0.000000 
  24.960000   149.000000     0.006711   142.970531     0.000000 
  24.980000   148.000000     0.006757   142.928513     0.000000 
  25.000000   159.000000     0.006289   142.886687     0.000000 
  25.020000   127.000000     0.007874   142.845052     0.000000 
  25.040000   147.000000     0.006803   142.803608     0.000000 
  25.060000   143.000000     0.006993   142.762354     0.000000 
  25.080000   143.000000     0.006993   142.721290     0.000000 
  25.100000   116.000000     0.008621   142.680415     0.000000 
  25.120000   140.000000     0.007143   142.639729     0.000000 
  25.140000   146.000000     0.006849   142.599231     0.000000 
  25.160000   157.000000     0.006369   142.558921     0.000000 
  25.180000   152.000000     0.006579   142.518798     0.000000 
  25.200000   125.000000     0.008000   142.478862     0.000000 
  25.220000   138.000000     0.007246   142.439111     0.000000 
  25.240000   147.000000     0.006803   142.399546     0.000000 
  25.260000   163.000000     0.006135   142.360167     0.000000 
  25.280000   140.000000     0.007143   142.320972     0.000000 
  25.300000   127.000000     0.007874   142.281961     0.000000 
  25.320000   123.000000     0.008130   142.243133     0.000000 
  25.340000   149.000000     0.006711   142.204488     0.000000 
  25.360000   137.000000     0.007299   142.166026     0.000000 
  25.380000   139.000000     0.007194   142.127746     0.000000 
  25.400000   128.000000     0.007812   142.089648     0.000000 
  25.420000   147.000000     0.006803   142.051730     0.000000 
  25.440000   130.000000     0.007692   142.013993     0.000000 
  25.460000   147.000000     0.006803   141.976435     0.000000 
  25.480000   141.000000     0.007092   141.939057     0.000000 
  25.500000   124.000000     0.008065   141.901858     0.000000 
  25.520000   138.000000     0.007246   141.864838     0.000000 
  25.540000   163.000000     0.006135   141.827995     0.000000 
  25.560000   149.000000     0.006711   141.791330     0.000000 
  25.580000   134.000000     0.007463   141.754841     0.000000 
  25.600000   121.000000     0.008264   141.718529     0.000000 
  25.620000   138.000000     0.007246   141.682393     0.000000 
  25.640000   142.000000     0.007042   141.646432     0.000000 
  25.660000   134.000000     0.007463   141.610646     0.000000 
  25.680000   136.000000     0.007353   141.575034     0.000000 
  25.700000   153.000000     0.006536   141.539596     0.000000 
  25.720000   126.000000     0.007937   141.504332     0.000000 
  25.740000   135.000000     0.007407   141.469240     0.000000 
  25.760000   120.000000     0.008333   141.434321     0.000000 
  25.780000   127.000000     0.007874   141.399573     0.000000 
  25.800000   136.000000     0.007353   141.364997     0.000000 
  25.820000   163.000000     0.006135   141.330592     0.000000 
  25.840000   131.000000     0.007634   141.296357     0.000000 
  25.860000   111.000000     0.009009   141.262292     0.000000 
  25.880000   149.000000     0.006711   141.228396     0.000000 
  25.900000   140.000000     0.007143   141.194669     0.000000 
  25.920000   155.000000     0.006452   141.161111     0.000000 
  25.940000   128.000000     0.007812   141.127720     0.000000 
  25.960000   136.000000     0.007353   141.094497     0.000000 
  25.980000   123.000000     0.008130   141.061440     0.000000 
  26.000000   136.000000     0.007353   141.028550     0.000000 
  26.020000   145.000000     0.006897   140.995826     0.000000 
  26.040000   146.000000     0.006849   140.963267     0.000000 
  26.060000   135.000000     0.007407   140.930874     0.000000 
  26.080000   144.000000     0.006944   140.898644     0.000000 
  26.100000   147.000000     0.006803   140.866579     0.000000 
  26.120000   129.000000     0.007752   140.834677     0.000000 
  26.140000   136.000000     0.007353   140.802938     0.000000 
  26.160000   144.000000     0.006944   140.771361     0.000000 
  26.180000   137.000000     0.007299   140.739947     0.000000 
  26.200000   136.000000     0.007353   140.708694     0.000000 
  26.220000   135.000000     0.007407   140.677602     0.000000 
  26.240000   134.000000     0.007463   140.646670     0.000000 
  26.260000   120.000000     0.008333   140.615899     0.000000 
  26.280000   163.000000     0.006135   140.585287     0.000000 
  26.300000   128.000000     0.007812   140.554834     0.000000 
  26.320000   144.000000     0.006944   140.524540     0.000000 
  26.340000   137.000000     0.007299   140.494404     0.000000 
  26.360000   125.000000     0.008000   140.464426     0.000000 
  26.380000   105.000000     0.009524   140.434605     0.000000 
  26.400000   143.000000     0.006993   140.404940     0.000000 
  26.420000   125.000000     0.008000   140.375432     0.000000 
  26.440000   161.000000     0.006211   140.346079     0.000000 
  26.460000   129.000000     0.007752   140.316882     0.000000 
  26.480000   131.000000     0.007634   140.287840     0.000000 
  26.500000   171.000000     0.005848   140.258952     0.000000 
  26.520000   150.000000     0.006667   140.230217     0.000000 
  26.540000   144.000000     0.006944   140.201636     0.000000 
  26.560000   138.000000     0.007246   140.173208     0.000000 
  26.580000   123.000000     0.008130   140.144933     0.000000 
  26.600000   137.000000     0.007299   140.116809     0.000000 
  26.620000   130.000000     0.007692   140.088837     0.000000 
  26.640000   138.000000     0.007246   140.061016     0.000000 
  26.660000   147.000000     0.006803   140.033345     0.000000 
  26.680000   149.000000     0.006711   140.005825     0.000000 
  26.700000   145.000000     0.006897   139.978454     0.000000 
  26.720000   152.000000     0.006579   139.951232     0.000000 
  26.740000   136.000000     0.007353   139.924159     0.000000 
  26.760000   131.000000     0.007634   139.897235     0.000000 
  26.780000   134.000000     0.007463   139.870457     0.000000 
  26.800000   151.000000     0.006623   139.843828     0.000000 
  26.820000   121.000000     0.008264   139.817345     0.000000 
  26.840000   140.000000     0.007143   139.791008     0.000000 
  26.860000   144.000000     0.006944   139.764817     0.000000 
  26.880000   121.000000     0.008264   139.738772     0.000000 
  26.900000   129.000000     0.007752   139.712872     0.000000 
  26.920000   149.000000     0.006711   139.687116     0.000000 
  26.940000   129.000000     0.007752   139.661504     0.000000 
  26.960000   132.000000     0.007576   139.636036     0.000000 
  26.980000   141.000000     0.007092   139.610711     0.000000 
  27.000000   139.000000     0.007194   139.585529     0.000000 
  27.020000   134.000000     0.007463   139.560489     0.000000 
  27.040000   122.000000     0.008197   139.535591     0.000000 
  27.060000   141.000000     0.007092   139.510834     0.000000 
  27.080000   127.000000     0.007874   139.486218     0.000000 
  27.100000   137.000000     0.007299   139.461742     0.000000 
  27.120000   153.000000     0.006536   139.437406     0.000000 
  27.140000   128.000000     0.007812   139.413210     0.000000 
  27.160000   134.000000     0.007463   139.389153     0.000000 
  27.180000   146.000000     0.006849   139.365234     0.000000 
  27.200000   125.000000     0.008000   139.341454     0.000000 
  27.220000   133.000000     0.007519   139.317811     0.000000 
  27.240000   138.000000     0.007246   139.294306     0.000000 
  27.260000   132.000000     0.007576   139.270937     0.000000 
  27.280000   142.000000     0.007042   139.247705     0.000000 
  27.300000   153.000000     0.006536   139.224608     0.000000 
  27.320000   148.000000     0.006757   139.201647     0.000000 
  27.340000   147.000000     0.006803   139.178821     0.000000 
  27.360000   124.000000     0.008065   139.156130     0.000000 
  27.380000   130.000000     0.007692   139.133573     0.000000 
  27.400000   129.000000     0.007752   139.111149     0.000000 
  27.420000   152.000000     0.006579   139.088859     0.000000 
  27.440000   145.000000     0.006897   139.066702     0.000000 
  27.460000   140.000000     0.007143   139.044676     0.000000 
  27.480000   152.000000     0.006579   139.022783     0.000000 
  27.500000   135.000000     0.007407   139.001022     0.000000 
  27.520000   116.000000     0.008621   138.979391     0.000000 
  27.540000   133.000000     0.007519   138.957891     0.000000 
  27.560000   143.000000     0.006993   138.936521     0.000000 
  27.580000   140.000000     0.007143   138.915281     0.000000 
  27.600000   118.000000     0.008475   138.894170     0.000000 
  27.620000   130.000000     0.007692   138.873188     0.000000 
  27.640000   125.000000     0.008000   138.852334     0.000000 
  27.660000   133.000000     0.007519   138.831609     0.000000 
  27.680000   132.000000     0.007576   138.811010     0.000000 
  27.700000   158.000000     0.006329   138.790540     0.000000 
  27.720000   123.000000     0.008130   138.770195     0.000000 
  27.740000   141.000000     0.007092   138.749977     0.000000 
  27.760000   116.000000     0.008621   138.729885     0.000000 
  27.780000   144.000000     0.006944   138.709918     0.000000 
  27.800000   129.000000     0.007752   138.690076     0.000000 
  27.820000   149.000000     0.006711   138.670359     0.000000 
  27.840000   150.000000     0.006667   138.650766     0.000000 
  27.860000   132.000000     0.007576   138.631296     0.000000 
  27.880000   136.000000     0.007353   138.611950     0.000000 
  27.900000   138.000000     0.007246   138.592726     0.000000 
  27.920000   134.000000     0.007463   138.573625     0.000000 
  27.940000   134.000000     0.007463   138.554646     0.000000 
  27.960000   133.000000     0.007519   138.535789     0.000000 
  27.980000   140.000000     0.007143   138.534893     0.000000 
  28.000000   130.000000     0.007692   138.516592     0.000000 
  28.020000   112.000000     0.008929   138.498421     0.000000 
  28.040000   138.000000     0.007246   138.480377     0.000000 
  28.060000   114.000000     0.008772   138.462463     0.000000 
  28.080000   144.000000     0.006944   138.444676     0.000000 
  28.100000   133.000000     0.007519   138.427018     0.000000 
  28.120000   149.000000     0.006711   138.409489     0.000000 
  28.140000   125.000000     0.008000   138.392087     0.000000 
  28.160000   115.000000     0.008696   138.374814     0.000000 
  28.180000   141.000000     0.007092   138.357669     0.000000 
  28.200000   133.000000     0.007519   138.340652     0.000000 
  28.220000   129.000000     0.007752   138.323764     0.000000 
  28.240000   140.000000     0.007143   138.307003     0.000000 
  28.260000   132.000000     0.007576   138.290371     0.000000 
  28.280000   143.000000     0.006993   138.273868     0.000000 
  28.300000   123.000000     0.008130   138.257494     0.000000 
  28.320000   135.000000     0.007407   138.241248     0.000000 
  28.340000   156.000000     0.006410   138.225131     0.000000 
  28.360000   135.000000     0.007407   138.209144     0.000000 
  28.380000   113.000000     0.008850   138.193286     0.000000 
  28.400000   142.000000     0.007042   138.177558     0.000000 
  28.420000   128.000000     0.007812   138.161960     0.000000 
  28.440000   141.000000     0.007092   138.146493     0.000000 
  28.460000   132.000000     0.007576   138.131157     0.000000 
  28.480000   147.000000     0.006803   138.115953     0.000000 
  28.500000   126.000000     0.007937   138.100881     0.000000 
  28.520000   132.000000     0.007576   138.085941     0.000000 
  28.540000   142.000000     0.007042   138.071134     0.000000 
  28.560000   136.000000     0.007353   138.056462     0.000000 
  28.580000   155.000000     0.006452   138.041925     0.000000 
  28.600000   115.000000     0.008696   138.027523     0.000000 
  28.620000   148.000000     0.006757   138.013257     0.000000 
  28.640000   155.000000     0.006452   137.999130     0.000000 
  28.660000   145.000000     0.006897   137.985141     0.000000 
  28.680000   125.000000     0.008000   137.971291     0.000000 
  28.700000   125.000000     0.008000   137.957583     0.000000 
  28.720000   141.000000     0.007092   137.944018     0.000000 
  28.740000   142.000000     0.007042   137.930597     0.000000 
  28.760000   134.000000     0.007463   137.917321     0.000000 
  28.780000   141.000000     0.007092   137.904193     0.000000 
  28.800000   146.000000     0.006849   137.891215     0.000000 
  28.820000   134.000000     0.007463   137.878388     0.000000 
  28.840000   132.000000     0.007576   137.865714     0.000000 
  28.860000   134.000000     0.007463   137.853198     0.000000 
  28.880000   141.000000     0.007092   137.840840     0.000000 
  28.900000   139.000000     0.007194   137.828644     0.000000 
  28.920000   121.000000     0.008264   137.816613     0.000000 
  28.940000   132.000000     0.007576   137.804751     0.000000 
  28.960000   143.000000     0.006993   137.793060     0.000000 
  28.980000   142.000000     0.007042   137.781546     0.000000 
  29.000000   126.000000     0.007937   137.770212     0.000000 
  29.020000   152.000000     0.006579   137.759064     0.000000 
  29.040000   140.000000     0.007143   137.748106     0.000000 
  29.060000   136.000000     0.007353   137.737344     0.000000 
  29.080000   112.000000     0.008929   137.726784     0.000000 
  29.100000   128.000000     0.007812   137.716433     0.000000 
  29.120000   120.000000     0.008333   137.706298     0.000000 
  29.140000   134.000000     0.007463   137.696388     0.000000 
  29.160000   142.000000     0.007042   137.686710     0.000000 
  29.180000   111.000000     0.009009   137.677275     0.000000 
  29.200000   129.000000     0.007752   137.668092     0.000000 
  29.220000   145.000000     0.006897   137.659174     0.000000 
  29.240000   125.000000     0.008000   137.650533     0.000000 
  29.260000   128.000000     0.007812   137.642184     0.000000 
  29.280000   137.000000     0.007299   137.634141     0.000000 
  29.300000   139.000000     0.007194   137.626422     0.000000 
  29.320000   139.000000     0.007194   137.619045     0.000000 
  29.340000   119.000000     0.008403   137.612031     0.000000 
  29.360000   136.000000     0.007353   137.605405     0.000000 
  29.380000   126.000000     0.007937   137.599191     0.000000 
  29.400000   137.000000     0.007299   137.593419     0.000000 
  29.420000    99.000000     0.010101   137.588121     0.000000 
  29.440000   118.000000     0.008475   137.583333     0.000000 
  29.460000   128.000000     0.007812   137.579097     0.000000 
  29.480000   127.000000     0.007874   137.575458     0.000000 
  29.500000   131.000000     0.007634   137.572468     0.000000 
  29.520000   128.000000     0.007812   137.570186     0.000000 
  29.540000   154.000000     0.006494   137.568679     0.000000 
  29.560000   137.000000     0.007299   137.568024     0.000000 
  29.580000   128.000000     0.007812   137.568307     0.000000 
  29.600000   123.000000     0.008130   137.569630     0.000000 
  29.620000   151.000000     0.006623   137.572107     0.000000 
  29.640000   163.000000     0.006135   137.575873     0.000000 
  29.660000   120.000000     0.008333   137.581083     0.000000 
  29.680000   121.000000     0.008264   137.587918     0.000000 
  29.700000   122.000000     0.008197   137.596591     0.000000 
  29.720000   121.000000     0.008264   137.607353     0.000000 
  29.740000   116.000000     0.008621   137.620500     0.000000 
  29.760000   162.000000     0.006173   137.636387     0.000000 
  29.780000   124.000000     0.008065   137.655438     0.000000 
  29.800000   134.000000     0.007463   137.678163     0.000000 
  29.820000   142.000000     0.007042   137.705186     0.000000 
  29.840000   138.000000     0.007246   137.737267     0.000000 
  29.860000   120.000000     0.008333   137.775344     0.000000 
  29.880000   144.000000     0.006944   137.820586     0.000000 
  29.900000   130.000000     0.007692   137.874458     0.000000 
  29.920000   147.000000     0.006803   137.938824     0.000000 
  29.940000   157.000000     0.006369   138.016072     0.000000 
  29.960000   161.000000     0.006211   138.109326     0.000000 
  29.980000   131.000000     0.007634   138.222758     0.000000 
  30.000000   119.000000     0.008403   138.362161     0.000000 
  30.020000   135.000000     0.007407   138.536033     0.000000 
  30.040000   151.000000     0.006623   138.757666     0.000000 
  30.060000   165.000000     0.006061   139.048971     0.000000 
  30.080000   137.000000     0.007299   139.446680     0.000000 
  30.100000   146.000000     0.006849   140.010598     0.000000 
  30.120000   138.000000     0.007246   140.831338     0.000000 
  30.140000   169.000000     0.005917   142.031916     0.000000 
  30.160000   169.000000     0.005917   143.755706     0.000000 
  30.180000   173.000000     0.005780   146.133837     0.000000 
  30.200000   153.000000     0.006536   149.222887     0.000000 
  30.220000   181.000000     0.005525   152.883882     0.000000 
  30.240000   182.000000     0.005495   156.555760     0.000000 
  30.260000   176.000000     0.005682   159.066886     0.000000 
  30.280000   168.000000     0.005952   159.161326     0.000000 
  30.300000   164.000000     0.006098   156.779555     0.000000 
  30.320000   163.000000     0.006135   153.131884     0.000000 
  30.340000   154.000000     0.006494   149.428686     0.000000 
  30.360000   164.000000     0.006098   146.273599     0.000000 
  30.380000   149.000000     0.006711   143.827887     0.000000 
  30.400000   149.000000     0.006711   142.044347     0.000000 
  30.420000   127.000000     0.007874   140.794794     0.000000 
  30.440000   157.000000     0.006369   139.935348     0.000000 
  30.460000   137.000000     0.007299   139.340838     0.000000 
  30.480000   142.000000     0.007042   138.918161     0.000000 
  30.500000   161.000000     0.006211   138.605444     0.000000 
  30.520000   130.000000     0.007692   138.364530     0.000000 
  30.540000   147.000000     0.006803   138.172646     0.000000 
  30.560000   148.000000     0.006757   138.016013     0.000000 
  30.580000   142.000000     0.007042   137.885865     0.000000 
  30.600000   139.000000     0.007194   137.776252     0.000000 
  30.620000   159.000000     0.006289   137.682903     0.000000 
  30.640000   156.000000     0.006410   137.602629     0.000000 
  30.660000   159.000000     0.006289   137.532994     0.000000 
  30.680000   125.000000     0.008000   137.472100     0.000000 
  30.700000   155.000000     0.006452   137.418455     0.000000 
  30.720000   141.000000     0.007092   137.370870     0.000000 
  30.740000   123.000000     0.008130   137.328390     0.000000 
  30.760000   120.000000     0.008333   137.290243     0.000000 
  30.780000   138.000000     0.007246   137.255796     0.000000 
  30.800000   137.000000     0.007299   137.224530     0.000000 
  30.820000   119.000000     0.008403   137.196014     0.000000 
  30.840000   133.000000     0.007519   137.169889     0.000000 
  30.860000   137.000000     0.007299   137.145853     0.000000 
  30.880000   165.000000     0.006061   137.123652     0.000000 
  30.900000   156.000000     0.006410   137.103069     0.000000 
  30.920000   156.000000     0.006410   137.083921     0.000000 
  30.940000   135.000000     0.007407   137.066050     0.000000 
  30.960000   170.000000     0.005882   137.049319     0.000000 
  30.980000   132.000000     0.007576   137.033612     0.000000 
  31.000000   145.000000     0.006897   137.018826     0.000000 
  31.020000   137.000000     0.007299   137.004871     0.000000 
  31.040000   136.000000     0.007353   136.991671     0.000000 
  31.060000   138.000000     0.007246   136.979157     0.000000 
  31.080000   151.000000     0.006623   136.967269     0.000000 
  31.100000   136.000000     0.007353   136.955953     0.000000 
  31.120000   146.000000     0.006849   136.945163     0.000000 
  31.140000   134.000000     0.007463   136.934856     0.000000 
  31.160000   114.000000     0.008772   136.924996     0.000000 
  31.180000   128.000000     0.007812   136.915548     0.000000 
  31.200000   117.000000     0.008547   137.745908     0.000000 
  31.220000   115.000000     0.008696   137.750311     0.000000 
  31.240000   113.000000     0.008850   137.755355     0.000000 
  31.260000   118.000000     0.008475   137.761028     0.000000 
  31.280000   116.000000     0.008621   137.767322     0.000000 
  31.300000   120.000000     0.008333   137.774228     0.000000 
  31.320000   130.000000     0.007692   137.781742     0.000000 
  31.340000   127.000000     0.007874   137.789860     0.000000 
  31.360000   132.000000     0.007576   137.798580     0.000000 
  31.380000   118.000000     0.008475   137.807903     0.000000 
  31.400000   132.000000     0.007576   137.817831     0.000000 
  31.420000   131.000000     0.007634   137.828367     0.000000 
  31.440000   135.000000     0.007407   137.839514     0.000000 
  31.460000   130.000000     0.007692   137.851281     0.000000 
  31.480000   121.000000     0.008264   137.863672     0.000000 
  31.500000   135.000000     0.007407   137.876698     0.000000 
  31.520000   137.000000     0.007299   137.890369     0.000000 
  31.540000   124.000000     0.008065   137.904694     0.000000 
  31.560000   140.000000     0.007143   137.919687     0.000000 
  31.580000   138.000000     0.007246   137.935362     0.000000 
  31.600000   127.000000     0.007874   137.951732     0.000000 
  31.620000   128.000000     0.007812   137.968815     0.000000 
  31.640000   125.000000     0.008000   137.986628     0.000000 
  31.660000   139.000000     0.007194   138.005190     0.000000 
  31.680000   140.000000     0.007143   138.024520     0.000000 
  31.700000   139.000000     0.007194   138.044640     0.000000 
  31.720000   128.000000     0.007812   138.065574     0.000000 
  31.740000   131.000000     0.007634   138.087346     0.000000 
  31.760000   130.000000     0.007692   138.109981     0.000000 
  31.780000   129.000000     0.007752   138.133508     0.000000 
  31.800000   136.000000     0.007353   138.157955     0.000000 
  31.820000   149.000000     0.006711   138.183354     0.000000 
  31.840000   141.000000     0.007092   138.209739     0.000000 
  31.860000   131.000000     0.007634   138.237143     0.000000 
  31.880000   140.000000     0.007143   138.265604     0.000000 
  31.900000   131.000000     0.007634   138.295161     0.000000 
  31.920000   153.000000     0.006536   138.325856     0.000000 
  31.940000   137.000000     0.007299   138.357733     0.000000 
  31.960000   156.000000     0.006410   138.390838     0.000000 
  31.980000   145.000000     0.006897   138.425221     0.000000 
  32.000000   141.000000     0.007092   138.460933     0.000000 
  32.020000   152.000000     0.006579   138.498031     0.000000 
  32.040000   140.000000     0.007143   138.536573     0.000000 
  32.060000   139.000000     0.007194   138.576620     0.000000 
  32.080000   150.000000     0.006667   138.618241     0.000000 
  32.100000   164.000000     0.006098   138.661503     0.000000 
  32.120000   151.000000     0.006623   138.706482     0.000000 
  32.140000   127.000000     0.007874   138.753258     0.000000 
  32.160000   140.000000     0.007143   138.801913     0.000000 
  32.180000   136.000000     0.007353   138.852537     0.000000 
  32.200000   132.000000     0.007576   138.905225     0.000000 
  32.220000   162.000000     0.006173   138.960080     0.000000 
  32.240000   146.000000     0.006849   139.017207     0.000000 
  32.260000   156.000000     0.006410   139.076724     0.000000 
  32.280000   153.000000     0.006536   139.138751     0.000000 
  32.300000   125.000000     0.008000   139.203422     0.000000 
  32.320000   133.000000     0.007519   139.270875     0.000000 
  32.340000   161.000000     0.006211   139.341260     0.000000 
  32.360000   151.000000     0.006623   139.414739     0.000000 
  32.380000   153.000000     0.006536   139.491483     0.000000 
  32.400000   134.000000     0.007463   139.571676     0.000000 
  32.420000   159.000000     0.006289   139.655517     0.000000 
  32.440000   117.000000     0.008547   139.743218     0.000000 
  32.460000   157.000000     0.006369   139.835008     0.000000 
  32.480000   173.000000     0.005780   139.931134     0.000000 
  32.500000   164.000000     0.006098   140.031860     0.000000 
  32.520000   156.000000     0.006410   140.137473     0.000000 
  32.540000   157.000000     0.006369   140.248284     0.000000 
  32.560000   160.000000     0.006250   140.364625     0.000000 
  32.580000   151.000000     0.006623   146.809985     0.000000 
  32.600000   169.000000     0.005917   147.033056     0.000000 
  32.620000   150.000000     0.006667   147.264949     0.000000 
  32.640000   147.000000     0.006803   147.506192     0.000000 
  32.660000   145.000000     0.006897   147.757356     0.000000 
  32.680000   147.000000     0.006803   148.019060     0.000000 
  32.700000   158.000000     0.006329   148.291976     0.000000 
  32.720000   147.000000     0.006803   148.576836     0.000000 
  32.740000   152.000000     0.006579   148.874436     0.000000 
  32.760000   157.000000     0.006369   149.185645     0.000000 
  32.780000   168.000000     0.005952   149.511413     0.000000 
  32.800000   173.000000     0.005780   149.852782     0.000000 
  32.820000   168.000000     0.005952   150.210895     0.000000 
  32.840000   140.000000     0.007143   150.587008     0.000000 
  32.860000   148.000000     0.006757   150.982506     0.000000 
  32.880000   140.000000     0.007143   151.398919     0.000000 
  32.900000   161.000000     0.006211   151.837942     0.000000 
  32.920000   137.000000     0.007299   152.301454     0.000000 
  32.940000   164.000000     0.006098   152.791547     0.000000 
  32.960000   161.000000     0.006211   153.310554     0.000000 
  32.980000   160.000000     0.006250   153.861085     0.000000 
  33.000000   156.000000     0.006410   154.446065     0.000000 
  33.020000   172.000000     0.005814   155.068787     0.000000 
  33.040000   169.000000     0.005917   155.732967     0.000000 
  33.060000   164.000000     0.006098   156.442809     0.000000 
  33.080000   195.000000     0.005128   157.203089     0.000000 
  33.100000   162.000000     0.006173   158.019251     0.000000 
  33.120000   163.000000     0.006135   158.897525     0.000000 
  33.140000   179.000000     0.005587   159.845063     0.000000 
  33.160000   172.000000     0.005814   160.870114     0.000000 
  33.180000   173.000000     0.005780   161.982234     0.000000 
  33.200000   182.000000     0.005495   163.192537     0.000000 
  33.220000   161.000000     0.006211   164.514019     0.000000 
  33.240000   145.000000     0.006897   165.961947     0.000000 
  33.260000   180.000000     0.005556   167.554359     0.000000 
  33.280000   139.000000     0.007194   169.312681     0.000000 
  33.300000   166.000000     0.006024   171.262522     0.000000 
  33.320000   160.000000     0.006250   173.434683     0.000000 
  33.340000   170.000000     0.005882   175.866470     0.000000 
  33.360000   179.000000     0.005587   178.603390     0.000000 
  33.380000   193.000000     0.005181   181.701407     0.000000 
  33.400000   169.000000     0.005917   185.229971     0.000000 
  33.420000   162.000000     0.006173   189.276224     0.000000 
  33.440000   198.000000     0.005051   193.951164     0.000000 
  33.460000   202.000000     0.004950   199.399351     0.000000 
  33.480000   187.000000     0.005348   205.815381     0.000000 
  33.500000   207.000000     0.004831   213.473374     0.000000 
  33.520000   207.000000     0.004831   222.780045     0.000000 
  33.540000   258.000000     0.003876   234.366184     0.000000 
  33.560000   235.000000     0.004255   249.230964     0.000000 
  33.580000   242.000000     0.004132   268.940442     0.000000 
  33.600000   282.000000     0.003546   295.847998     0.000000 
  33.620000   324.000000     0.003086   333.251386     0.000000 
  33.640000   350.000000     0.002857   385.348934     0.000000 
  33.660000   446.000000     0.002242   456.841116     0.000000 
  33.680000   519.000000     0.001927   552.051576     0.000000 
  33.700000   631.000000     0.001585   673.413034     0.000000 
  33.720000   793.000000     0.001261   818.835351     0.000000 
  33.740000   983.000000     0.001017   976.890180     0.000000 
  33.760000  1150.000000     0.000870  1120.078130     0.000000 
  33.780000  1106.000000     0.000904  1204.948682     0.000000 
  33.800000   954.000000     0.001048  1195.548665     0.000000 
  33.820000   893.000000     0.001120  1096.554363     0.000000 
  33.840000   757.000000     0.001321   948.410109     0.000000 
  33.860000   701.000000     0.001427   792.369589     0.000000 
  33.880000   622.000000     0.001608   652.301263     0.000000 
  33.900000   470.000000     0.002128   537.267277     0.000000 
  33.920000   354.000000     0.002825   448.167690     0.000000 
  33.940000   292.000000     0.003425   382.035588     0.000000 
  33.960000   265.000000     0.003774   334.378510     0.000000 
  33.980000   261.000000     0.003831   300.545140     0.000000 
  34.000000   279.000000     0.003584   276.500110     0.000000 
  34.020000   231.000000     0.004329   259.140952     0.000000 
  34.040000   194.000000     0.005155   246.289621     0.000000 
  34.060000   206.000000     0.004854   236.513340     0.000000 
  34.080000   204.000000     0.004902   228.903618     0.000000 
  34.100000   207.000000     0.004831   222.887350     0.000000 
  34.120000   185.000000     0.005405   218.093791     0.000000 
  34.140000   205.000000     0.004878   214.271995     0.000000 
  34.160000   187.000000     0.005348   211.243529     0.000000 
  34.180000   179.000000     0.005587   208.876287     0.000000 
  34.200000   181.000000     0.005525   207.069772     0.000000 
  34.220000   190.000000     0.005263   205.746331     0.000000 
  34.240000   211.000000     0.004739   204.845520     0.000000 
  34.260000   196.000000     0.005102   204.327767     0.000000 
  34.280000   206.000000     0.004854   204.141564     0.000000 
  34.300000   190.000000     0.005263   204.266282     0.000000 
  34.320000   199.000000     0.005025   204.680836     0.000000 
  34.340000   178.000000     0.005618   205.369961     0.000000 
  34.360000   195.000000     0.005128   206.323362     0.000000 
  34.380000   186.000000     0.005376   207.535086     0.000000 
  34.400000   199.000000     0.005025   209.003071     0.000000 
  34.420000   208.000000     0.004808   210.728844     0.000000 
  34.440000   208.000000     0.004808   212.717335     0.000000 
  34.460000   210.000000     0.004762   214.976805     0.000000 
  34.480000   212.000000     0.004717   217.518862     0.000000 
  34.500000   229.000000     0.004367   220.358568     0.000000 
  34.520000   206.000000     0.004854   223.514643     0.000000 
  34.540000   234.000000     0.004274   227.009761     0.000000 
  34.560000   239.000000     0.004184   230.870944     0.000000 
  34.580000   221.000000     0.004525   235.130078     0.000000 
  34.600000   244.000000     0.004098   239.824561     0.000000 
  34.620000   266.000000     0.003759   244.998105     0.000000 
  34.640000   255.000000     0.003922   250.701732     0.000000 
  34.660000   237.000000     0.004219   256.994996     0.000000 
  34.680000   262.000000     0.003817   263.947495     0.000000 
  34.700000   262.000000     0.003817   271.640726     0.000000 
  34.720000   296.000000     0.003378   280.170396     0.000000 
  34.740000   304.000000     0.003289   289.649283     0.000000 
  34.760000   309.000000     0.003236   300.210817     0.000000 
  34.780000   325.000000     0.003077   312.013588     0.000000 
  34.800000   330.000000     0.003030   325.247031     0.000000 
  34.820000   348.000000     0.002874   340.138690     0.000000 
  34.840000   405.000000     0.002469   356.963571     0.000000 
  34.860000   354.000000     0.002825   376.056165     0.000000 
  34.880000   431.000000     0.002320   397.826460     0.000000 
  34.900000   432.000000     0.002315   422.781338     0.000000 
  34.920000   506.000000     0.001976   451.554520     0.000000 
  34.940000   509.000000     0.001965   484.950772     0.000000 
  34.960000   525.000000     0.001905   524.015947     0.000000 
  34.980000   629.000000     0.001590   570.155470     0.000000 
  35.000000   663.000000     0.001508   625.342338     0.000000 
  35.020000   710.000000     0.001408   692.480262     0.000000 
  35.040000   826.000000     0.001211   776.007842     0.000000 
  35.060000   973.000000     0.001028   882.819454     0.000000 
  35.080000  1126.000000     0.000888  1023.496188     0.000000 
  35.100000  1328.000000     0.000753  1213.648910     0.000000 
  35.120000  1645.000000     0.000608  1474.887184     0.000000 
  35.140000  1929.000000     0.000518  1834.647778     0.000000 
  35.160000  2502.000000     0.000400  2324.021246     0.000000 
  35.180000  3070.000000     0.000326  2972.863803     0.000000 
  35.200000  4106.000000     0.000244  3801.445960     0.000000 
  35.220000  5255.000000     0.000190  4806.495463     0.000000 
  35.240000  6790.000000     0.000147  5936.143235     0.000000 
  35.260000  8378.000000     0.000119  7049.878307     0.000000 
  35.280000  9182.000000     0.000109  7891.408567     0.000000 
  35.300000  8488.000000     0.000118  8166.751607     0.000000 
  35.320000  7243.000000     0.000138  7757.993502     0.000000 
  35.340000  6341.000000     0.000158  6836.115516     0.000000 
  35.360000  5857.000000     0.000171  5701.973787     0.000000 
  35.380000  5229.000000     0.000191  4589.627017     0.000000 
  35.400000  4108.000000     0.000243  3618.078874     0.000000 
  35.420000  3126.000000     0.000320  2826.550638     0.000000 
  35.440000  2239.000000     0.000447  2211.988807     0.000000 
  35.460000  1634.000000     0.000612  1751.289287     0.000000 
  35.480000  1426.000000     0.000701  1413.798763     0.000000 
  35.500000  1203.000000     0.000831  1168.868308     0.000000 
  35.520000  1013.000000     0.000987   990.142446     0.000000 
  35.540000   907.000000     0.001103   857.262385     0.000000 
  35.560000   815.000000     0.001227   755.735906     0.000000 
  35.580000   661.000000     0.001513   675.838319     0.000000 
  35.600000   720.000000     0.001389   611.263036     0.000000 
  35.620000   670.000000     0.001493   557.945376     0.000000 
  35.640000   694.000000     0.001441   513.209386     0.000000 
  35.660000   579.000000     0.001727   475.219686     0.000000 
  35.680000   531.000000     0.001883   442.656262     0.000000 
  35.700000   473.000000     0.002114   414.529058     0.000000 
  35.720000   483.000000     0.002070   390.071898     0.000000 
  35.740000   431.000000     0.002320   368.679053     0.000000 
  35.760000   424.000000     0.002358   349.864599     0.000000 
  35.780000   393.000000     0.002545   333.234536     0.000000 
  35.800000   352.000000     0.002841   318.466668     0.000000 
  35.820000   318.000000     0.003145   305.295497     0.000000 
  35.840000   310.000000     0.003226   293.500793     0.000000 
  35.860000   291.000000     0.003436   282.898708     0.000000 
  35.880000   268.000000     0.003731   273.334854     0.000000 
  35.900000   260.000000     0.003846   264.678860     0.000000 
  35.920000   249.000000     0.004016   256.820060     0.000000 
  35.940000   264.000000     0.003788   249.664045     0.000000 
  35.960000   264.000000     0.003788   243.129903     0.000000 
  35.980000   244.000000     0.004098   237.147976     0.000000 
  36.000000   220.000000     0.004545   231.658048     0.000000 
  36.020000   245.000000     0.004082   226.607857     0.000000 
  36.040000   215.000000     0.004651   221.951873     0.000000 
  36.060000   213.000000     0.004695   217.650286     0.000000 
  36.080000   214.000000     0.004673   213.668176     0.000000 
  36.100000   218.000000     0.004587   209.974807     0.000000 
  36.120000   226.000000     0.004425   206.543042     0.000000 
  36.140000   216.000000     0.004630   203.348856     0.000000 
  36.160000   219.000000     0.004566   200.370915     0.000000 
  36.180000   225.000000     0.004444   197.590227     0.000000 
  36.200000   211.000000     0.004739   194.989839     0.000000 
  36.220000   218.000000     0.004587   192.554584     0.000000 
  36.240000   198.000000     0.005051   190.270858     0.000000 
  36.260000   220.000000     0.004545   188.126437     0.000000 
  36.280000   214.000000     0.004673   186.110308     0.000000 
  36.300000   201.000000     0.004975   184.212534     0.000000 
  36.320000   197.000000     0.005076   182.424130     0.000000 
  36.340000   211.000000     0.004739   180.736955     0.000000 
  36.360000   190.000000     0.005263   179.143626     0.000000 
  36.380000   191.000000     0.005236   177.637430     0.000000 
  36.400000   185.000000     0.005405   175.388153     0.000000 
  36.420000   205.000000     0.004878   174.050909     0.000000 
  36.440000   191.000000     0.005236   172.783771     0.000000 
  36.460000   182.000000     0.005495   171.582110     0.000000 
  36.480000   175.000000     0.005714   170.441702     0.000000 
  36.500000   180.000000     0.005556   169.358681     0.000000 
  36.520000   176.000000     0.005682   168.329519     0.000000 
  36.540000   184.000000     0.005435   167.350989     0.000000 
  36.560000   184.000000     0.005435   166.420150     0.000000 
  36.580000   182.000000     0.005495   165.534322     0.000000 
  36.600000   186.000000     0.005376   164.691072     0.000000 
  36.620000   185.000000     0.005405   166.456336     0.000000 
  36.640000   163.000000     0.006135   165.725946     0.000000 
  36.660000   160.000000     0.006250   165.032906     0.000000 
  36.680000   162.000000     0.006173   164.375716     0.000000 
  36.700000   174.000000     0.005747   163.753109     0.000000 
  36.720000   167.000000     0.005988   163.164069     0.000000 
  36.740000   171.000000     0.005848   162.607862     0.000000 
  36.760000   154.000000     0.006494   162.084091     0.000000 
  36.780000   140.000000     0.007143   161.592788     0.000000 
  36.800000   196.000000     0.005102   161.134586     0.000000 
  36.820000   166.000000     0.006024   160.711010     0.000000 
  36.840000   177.000000     0.005650   160.324970     0.000000 
  36.860000   161.000000     0.006211   159.981511     0.000000 
  36.880000   142.000000     0.007042   159.688861     0.000000 
  36.900000   174.000000     0.005747   159.459672     0.000000 
  36.920000   174.000000     0.005747   159.312145     0.000000 
  36.940000   170.000000     0.005882   159.270497     0.000000 
  36.960000   156.000000     0.006410   159.364049     0.000000 
  36.980000   165.000000     0.006061   159.624259     0.000000 
  37.000000   170.000000     0.005882   160.079135     0.000000 
  37.020000   178.000000     0.005618   160.744182     0.000000 
  37.040000   176.000000     0.005682   161.607222     0.000000 
  37.060000   160.000000     0.006250   162.601571     0.000000 
  37.080000   165.000000     0.006061   163.566399     0.000000 
  37.100000   196.000000     0.005102   164.226963     0.000000 
  37.120000   197.000000     0.005076   164.281081     0.000000 
  37.140000   213.000000     0.004695   163.606679     0.000000 
  37.160000   208.000000     0.004808   162.370386     0.000000 
  37.180000   246.000000     0.004065   160.881787     0.000000 
  37.200000   206.000000     0.004854   159.397180     0.000000 
  37.220000   217.000000     0.004608   158.057546     0.000000 
  37.240000   215.000000     0.004651   156.916779     0.000000 
  37.260000   202.000000     0.004950   155.979935     0.000000 
  37.280000   183.000000     0.005464   155.227632     0.000000 
  37.300000   176.000000     0.005682   154.629841     0.000000 
  37.320000   164.000000     0.006098   154.154233     0.000000 
  37.340000   176.000000     0.005682   153.771265     0.000000 
  37.360000   165.000000     0.006061   153.456753     0.000000 
  37.380000   173.000000     0.005780   153.192483     0.000000 
  37.400000   182.000000     0.005495   152.965585     0.000000 
  37.420000   150.000000     0.006667   152.767347     0.000000 
  37.440000   169.000000     0.005917   152.591987     0.000000 
  37.460000   154.000000     0.006494   152.435650     0.000000 
  37.480000   145.000000     0.006897   152.295697     0.000000 
  37.500000   168.000000     0.005952   152.170248     0.000000 
  37.520000   167.000000     0.005988   152.057906     0.000000 
  37.540000   166.000000     0.006024   151.957597     0.000000 
  37.560000   155.000000     0.006452   151.868478     0.000000 
  37.580000   157.000000     0.006369   151.789871     0.000000 
  37.600000   153.000000     0.006536   151.721232     0.000000 
  37.620000   148.000000     0.006757   151.662122     0.000000 
  37.640000   142.000000     0.007042   151.612185     0.000000 
  37.660000   158.000000     0.006329   151.571136     0.000000 
  37.680000   147.000000     0.006803   151.538749     0.000000 
  37.700000   155.000000     0.006452   151.514848     0.000000 
  37.720000   159.000000     0.006289   151.499301     0.000000 
  37.740000   166.000000     0.006024   151.492013     0.000000 
  37.760000   168.000000     0.005952   151.492924     0.000000 
  37.780000   161.000000     0.006211   151.502002     0.000000 
  37.800000   155.000000     0.006452   151.519247     0.000000 
  37.820000   162.000000     0.006173   151.544682     0.000000 
  37.840000   161.000000     0.006211   151.578355     0.000000 
  37.860000   170.000000     0.005882   155.580936     0.000000 
  37.880000   171.000000     0.005848   155.682452     0.000000 
  37.900000   161.000000     0.006211   155.793489     0.000000 
  37.920000   169.000000     0.005917   155.914213     0.000000 
  37.940000   156.000000     0.006410   156.044814     0.000000 
  37.960000   157.000000     0.006369   156.185506     0.000000 
  37.980000   162.000000     0.006173   156.336526     0.000000 
  38.000000   159.000000     0.006289   156.498136     0.000000 
  38.020000   174.000000     0.005747   156.670626     0.000000 
  38.040000   183.000000     0.005464   150.624258     0.000000 
  38.060000   179.000000     0.005587   150.909280     0.000000 
  38.080000   187.000000     0.005348   151.204285     0.000000 
  38.100000   167.000000     0.005988   151.509731     0.000000 
  38.120000   184.000000     0.005435   151.826108     0.000000 
  38.140000   175.000000     0.005714   152.153937     0.000000 
  38.160000   164.000000     0.006098   152.493776     0.000000 
  38.180000   171.000000     0.005848   152.846222     0.000000 
  38.200000   198.000000     0.005051   153.211910     0.000000 
  38.220000   168.000000     0.005952   153.591522     0.000000 
  38.240000   171.000000     0.005848   153.985786     0.000000 
  38.260000   181.000000     0.005525   154.395481     0.000000 
  38.280000   185.000000     0.005405   154.821443     0.000000 
  38.300000   179.000000     0.005587   155.264568     0.000000 
  38.320000   176.000000     0.005682   155.725816     0.000000 
  38.340000   171.000000     0.005848   156.206220     0.000000 
  38.360000   181.000000     0.005525   156.706891     0.000000 
  38.380000   175.000000     0.005714   157.229022     0.000000 
  38.400000   169.000000     0.005917   157.773902     0.000000 
  38.420000   180.000000     0.005556   158.342919     0.000000 
  38.440000   179.000000     0.005587   158.937572     0.000000 
  38.460000   175.000000     0.005714   159.559482     0.000000 
  38.480000   170.000000     0.005882   160.210406     0.000000 
  38.500000   185.000000     0.005405   160.892244     0.000000 
  38.520000   174.000000     0.005747   161.607062     0.000000 
  38.540000   171.000000     0.005848   162.357103     0.000000 
  38.560000   170.000000     0.005882   163.144812     0.000000 
  38.580000   177.000000     0.005650   163.972851     0.000000 
  38.600000   174.000000     0.005747   164.844127     0.000000 
  38.620000   195.000000     0.005128   165.761820     0.000000 
  38.640000   177.000000     0.005650   166.729413     0.000000 
  38.660000   175.000000     0.005714   167.750729     0.000000 
  38.680000   190.000000     0.005263   168.829967     0.000000 
  38.700000   183.000000     0.005464   169.971756     0.000000 
  38.720000   185.000000     0.005405   171.181201     0.000000 
  38.740000   184.000000     0.005435   172.463948     0.000000 
  38.760000   184.000000     0.005435   173.826253     0.000000 
  38.780000   179.000000     0.005587   175.275061     0.000000 
  38.800000   200.000000     0.005000   176.818103     0.000000 
  38.820000   201.000000     0.004975   178.464004     0.000000 
  38.840000   201.000000     0.004975   180.222409     0.000000 
  38.860000   211.000000     0.004739   182.104132     0.000000 
  38.880000   222.000000     0.004505   184.121330     0.000000 
  38.900000   213.000000     0.004695   186.287709     0.000000 
  38.920000   199.000000     0.005025   188.618765     0.000000 
  38.940000   190.000000     0.005263   191.132076     0.000000 
  38.960000   189.000000     0.005291   193.847639     0.000000 
  38.980000   188.000000     0.005319   204.466789     0.000000 
  39.000000   200.000000     0.005000   207.755587     0.000000 
  39.020000   230.000000     0.004348   211.327543     0.000000 
  39.040000   229.000000     0.004367   215.217424     0.000000 
  39.060000   205.000000     0.004878   219.465523     0.000000 
  39.080000   234.000000     0.004274   224.118740     0.000000 
  39.100000   193.000000     0.005181   229.231915     0.000000 
  39.120000   229.000000     0.004367   234.869481     0.000000 
  39.140000   255.000000     0.003922   241.107535     0.000000 
  39.160000   224.000000     0.004464   248.036423     0.000000 
  39.180000   234.000000     0.004274   255.764049     0.000000 
  39.200000   240.000000     0.004167   264.420125     0.000000 
  39.220000   277.000000     0.003610   274.161751     0.000000 
  39.240000   293.000000     0.003413   285.180994     0.000000 
  39.260000   292.000000     0.003425   297.715653     0.000000 
  39.280000   318.000000     0.003145   312.065420     0.000000 
  39.300000   342.000000     0.002924   328.617492     0.000000 
  39.320000   348.000000     0.002874   347.888605     0.000000 
  39.340000   319.000000     0.003135   370.594466     0.000000 
  39.360000   418.000000     0.002392   397.761573     0.000000 
  39.380000   410.000000     0.002439   430.900474     0.000000 
  39.400000   464.000000     0.002155   472.233696     0.000000 
  39.420000   521.000000     0.001919   525.009752     0.000000 
  39.440000   642.000000     0.001558   593.800547     0.000000 
  39.460000   694.000000     0.001441   684.726369     0.000000 
  39.480000   781.000000     0.001280   805.449046     0.000000 
  39.500000   976.000000     0.001025   964.776061     0.000000 
  39.520000  1135.000000     0.000881  1171.736603     0.000000 
  39.540000  1424.000000     0.000702  1434.001446     0.000000 
  39.560000  1760.000000     0.000568  1755.371367     0.000000 
  39.580000  2042.000000     0.000490  2131.561734     0.000000 
  39.600000  2635.000000     0.000380  2542.895562     0.000000 
  39.620000  3261.000000     0.000307  2943.844677     0.000000 
  39.640000  3617.000000     0.000276  3257.388698     0.000000 
  39.660000  3459.000000     0.000289  3394.777199     0.000000 
  39.680000  2901.000000     0.000345  3308.145685     0.000000 
  39.700000  2461.000000     0.000406  3028.843189     0.000000 
  39.720000  2327.000000     0.000430  2641.631353     0.000000 
  39.740000  2339.000000     0.000428  2229.267795     0.000000 
  39.760000  2008.000000     0.000498  1844.423493     0.000000 
  39.780000  1641.000000     0.000609  1511.658191     0.000000 
  39.800000  1159.000000     0.000863  1237.961627     0.000000 
  39.820000   958.000000     0.001044  1020.909706     0.000000 
  39.840000   777.000000     0.001287   853.447457     0.000000 
  39.860000   637.000000     0.001570   726.692453     0.000000 
  39.880000   595.000000     0.001681   631.690174     0.000000 
  39.900000   518.000000     0.001931   560.473747     0.000000 
  39.920000   437.000000     0.002288   506.568257     0.000000 
  39.940000   407.000000     0.002457   465.071769     0.000000 
  39.960000   399.000000     0.002506   432.471177     0.000000 
  39.980000   367.000000     0.002725   406.342945     0.000000 
  40.000000   324.000000     0.003086   385.040061     0.000000 
  40.020000   334.000000     0.002994   367.467684     0.000000 
  40.040000   297.000000     0.003367   352.852928     0.000000 
  40.060000   337.000000     0.002967   340.651180     0.000000 
  40.080000   325.000000     0.003077   330.461124     0.000000 
  40.100000   292.000000     0.003425   321.977761     0.000000 
  40.120000   309.000000     0.003236   314.963977     0.000000 
  40.140000   257.000000     0.003891   309.232861     0.000000 
  40.160000   270.000000     0.003704   304.636165     0.000000 
  40.180000   283.000000     0.003534   301.056376     0.000000 
  40.200000   256.000000     0.003906   298.401026     0.000000 
  40.220000   312.000000     0.003205   296.598516     0.000000 
  40.240000   288.000000     0.003472   295.594995     0.000000 
  40.260000   278.000000     0.003597   295.352086     0.000000 
  40.280000   267.000000     0.003745   295.845250     0.000000 
  40.300000   308.000000     0.003247   297.062692     0.000000 
  40.320000   307.000000     0.003257   299.004737     0.000000 
  40.340000   299.000000     0.003344   301.683629     0.000000 
  40.360000   290.000000     0.003448   305.123737     0.000000 
  40.380000   281.000000     0.003559   309.362177     0.000000 
  40.400000   268.000000     0.003731   314.449873     0.000000 
  40.420000   315.000000     0.003175   320.453112     0.000000 
  40.440000   319.000000     0.003135   327.455678     0.000000 
  40.460000   350.000000     0.002857   335.561719     0.000000 
  40.480000   368.000000     0.002717   344.899408     0.000000 
  40.500000   358.000000     0.002793   355.625858     0.000000 
  40.520000   356.000000     0.002809   367.933464     0.000000 
  40.540000   400.000000     0.002500   382.058445     0.000000 
  40.560000   369.000000     0.002710   398.292632     0.000000 
  40.580000   417.000000     0.002398   417.000515     0.000000 
  40.600000   419.000000     0.002387   438.645190     0.000000 
  40.620000   465.000000     0.002151   463.829591     0.000000 
  40.640000   479.000000     0.002088   493.363557     0.000000 
  40.660000   569.000000     0.001757   528.372328     0.000000 
  40.680000   584.000000     0.001712   570.466329     0.000000 
  40.700000   607.000000     0.001647   621.991402     0.000000 
  40.720000   715.000000     0.001399   686.366754     0.000000 
  40.740000   792.000000     0.001263   768.488260     0.000000 
  40.760000   837.000000     0.001195   875.125044     0.000000 
  40.780000  1048.000000     0.000954  1015.176006     0.000000 
  40.800000  1176.000000     0.000850  1199.602155     0.000000 
  40.820000  1357.000000     0.000737  1440.837500     0.000000 
  40.840000  1715.000000     0.000583  1751.508990     0.000000 
  40.860000  2123.000000     0.000471  2142.293904     0.000000 
  40.880000  2696.000000     0.000371  2618.524208     0.000000 
  40.900000  3484.000000     0.000287  3174.491271     0.000000 
  40.920000  4489.000000     0.000223  3783.629789     0.000000 
  40.940000  5720.000000     0.000175  4384.372825     0.000000 
  40.960000  6582.000000     0.000152  4871.251241     0.000000 
  40.980000  6443.000000     0.000155  5117.283218     0.000000 
  41.000000  5388.000000     0.000186  5042.016966     0.000000 
  41.020000  4447.000000     0.000225  4671.950742     0.000000 
  41.040000  4146.000000     0.000241  4119.348071     0.000000 
  41.060000  4066.000000     0.000246  3507.143802     0.000000 
  41.080000  3909.000000     0.000256  2920.516693     0.000000 
  41.100000  3206.000000     0.000312  2402.904977     0.000000 
  41.120000  2308.000000     0.000433  1969.626241     0.000000 
  41.140000  1772.000000     0.000564  1620.337432     0.000000 
  41.160000  1409.000000     0.000710  1346.697648     0.000000 
  41.180000  1185.000000     0.000844  1136.803335     0.000000 
  41.200000   991.000000     0.001009   977.922106     0.000000 
  41.220000   862.000000     0.001160   858.206850     0.000000 
  41.240000   797.000000     0.001255   767.635437     0.000000 
  41.260000   747.000000     0.001339   698.333930     0.000000 
  41.280000   688.000000     0.001453   644.468696     0.000000 
  41.300000   650.000000     0.001538   601.904539     0.000000 
  41.320000   576.000000     0.001736   567.792485     0.000000 
  41.340000   575.000000     0.001739   540.191724     0.000000 
  41.360000   550.000000     0.001818   517.772378     0.000000 
  41.380000   501.000000     0.001996   499.605141     0.000000 
  41.400000   555.000000     0.001802   485.023166     0.000000 
  41.420000   504.000000     0.001984   473.535747     0.000000 
  41.440000   449.000000     0.002227   464.775652     0.000000 
  41.460000   456.000000     0.002193   458.466919     0.000000 
  41.480000   463.000000     0.002160   454.404715     0.000000 
  41.500000   516.000000     0.001938   452.442336     0.000000 
  41.520000   534.000000     0.001873   452.482650     0.000000 
  41.540000   499.000000     0.002004   454.472521     0.000000 
  41.560000   501.000000     0.001996   458.399484     0.000000 
  41.580000   482.000000     0.002075   464.290187     0.000000 
  41.600000   519.000000     0.001927   472.210540     0.000000 
  41.620000   502.000000     0.001992   482.267408     0.000000 
  41.640000   544.000000     0.001838   494.612048     0.000000 
  41.660000   581.000000     0.001721   509.445259     0.000000 
  41.680000   574.000000     0.001742   527.025022     0.000000 
  41.700000   593.000000     0.001686   547.676786     0.000000 
  41.720000   628.000000     0.001592   571.807736     0.000000 
  41.740000   639.000000     0.001565   599.926744     0.000000 
  41.760000   700.000000     0.001429   632.673302     0.000000 
  41.780000   658.000000     0.001520   670.861333     0.000000 
  41.800000   695.000000     0.001439   715.548123     0.000000 
  41.820000   756.000000     0.001323   768.145065     0.000000 
  41.840000   779.000000     0.001284   830.594869     0.000000 
  41.860000   876.000000     0.001142   905.646842     0.000000 
  41.880000   931.000000     0.001074   997.261854     0.000000 
  41.900000  1082.000000     0.000924  1111.162646     0.000000 
  41.920000  1188.000000     0.000842  1255.502949     0.000000 
  41.940000  1402.000000     0.000713  1441.555779     0.000000 
  41.960000  1555.000000     0.000643  1684.226564     0.000000 
  41.980000  1799.000000     0.000556  2002.110148     0.000000 
  42.000000  2141.000000     0.000467  2416.773195     0.000000 
  42.020000  2581.000000     0.000387  2950.972996     0.000000 
  42.040000  3226.000000     0.000310  3625.547193     0.000000 
  42.060000  4264.000000     0.000235  4454.489178     0.000000 
  42.080000  5150.000000     0.000194  5436.893167     0.000000 
  42.100000  6698.000000     0.000149  6543.041137     0.000000 
  42.120000  8333.000000     0.000120  7692.199406     0.000000 
  42.140000  9659.000000     0.000104  8729.197101     0.000000 
  42.160000  9766.000000     0.000102  9432.378227     0.000000 
  42.180000  8943.000000     0.000112  9599.613720     0.000000 
  42.200000  7484.000000     0.000134  9172.093301     0.000000 
  42.220000  6821.000000     0.000147  8287.664888     0.000000 
  42.240000  6491.000000     0.000154  7173.959175     0.000000 
  42.260000  6158.000000     0.000162  6027.867778     0.000000 
  42.280000  5399.000000     0.000185  4969.068336     0.000000 
  42.300000  4438.000000     0.000225  4052.137740     0.000000 
  42.320000  3367.000000     0.000297  3291.600246     0.000000 
  42.340000  2571.000000     0.000389  2680.367383     0.000000 
  42.360000  2012.000000     0.000497  2200.601654     0.000000 
  42.380000  1725.000000     0.000580  1830.115804     0.000000 
  42.400000  1487.000000     0.000672  1546.386901     0.000000 
  42.420000  1252.000000     0.000799  1329.031649     0.000000 
  42.440000  1034.000000     0.000967  1161.076531     0.000000 
  42.460000  1013.000000     0.000987  1029.287182     0.000000 
  42.480000   917.000000     0.001091   923.865838     0.000000 
  42.500000   800.000000     0.001250   837.826410     0.000000 
  42.520000   676.000000     0.001479   766.291969     0.000000 
  42.540000   673.000000     0.001486   705.864176     0.000000 
  42.560000   626.000000     0.001597   654.129481     0.000000 
  42.580000   610.000000     0.001639   609.315675     0.000000 
  42.600000   537.000000     0.001862   570.089465     0.000000 
  42.620000   489.000000     0.002045   535.458056     0.000000 
  42.640000   466.000000     0.002146   504.702296     0.000000 
  42.660000   416.000000     0.002404   477.291967     0.000000 
  42.680000   418.000000     0.002392   452.804007     0.000000 
  42.700000   408.000000     0.002451   430.875875     0.000000 
  42.720000   389.000000     0.002571   408.647034     0.000000 
  42.740000   364.000000     0.002747   390.955986     0.000000 
  42.760000   347.000000     0.002882   374.984352     0.000000 
  42.780000   333.000000     0.003003   360.521806     0.000000 
  42.800000   287.000000     0.003484   347.386393     0.000000 
  42.820000   306.000000     0.003268   335.420874     0.000000 
  42.840000   342.000000     0.002924   324.489511     0.000000 
  42.860000   285.000000     0.003509   314.475208     0.000000 
  42.880000   275.000000     0.003636   305.276914     0.000000 
  42.900000   245.000000     0.004082   296.807296     0.000000 
  42.920000   284.000000     0.003521   288.990651     0.000000 
  42.940000   256.000000     0.003906   281.761115     0.000000 
  42.960000   234.000000     0.004274   275.061129     0.000000 
  42.980000   226.000000     0.004425   268.840176     0.000000 
  43.000000   248.000000     0.004032   263.053726     0.000000 
  43.020000   243.000000     0.004115   257.662381     0.000000 
  43.040000   257.000000     0.003891   252.631159     0.000000 
  43.060000   216.000000     0.004630   247.928906     0.000000 
  43.080000   212.000000     0.004717   243.527797     0.000000 
  43.100000   212.000000     0.004717   239.402918     0.000000 
  43.120000   223.000000     0.004484   235.531903     0.000000 
  43.140000   216.000000     0.004630   231.894632     0.000000 
  43.160000   219.000000     0.004566   228.472966     0.000000 
  43.180000   179.000000     0.005587   225.250515     0.000000 
  43.200000   208.000000     0.004808   222.212442     0.000000 
  43.220000   204.000000     0.004902   219.345293     0.000000 
  43.240000   189.000000     0.005291   216.636841     0.000000 
  43.260000   217.000000     0.004608   214.075959     0.000000 
  43.280000   198.000000     0.005051   211.652502     0.000000 
  43.300000   201.000000     0.004975   209.357209     0.000000 
  43.320000   203.000000     0.004926   207.181609     0.000000 
  43.340000   214.000000     0.004673   205.117944     0.000000 
  43.360000   193.000000     0.005181   203.159102     0.000000 
  43.380000   187.000000     0.005348   201.298550     0.000000 
  43.400000   187.000000     0.005348   199.530283     0.000000 
  43.420000   186.000000     0.005376   197.848774     0.000000 
  43.440000   185.000000     0.005405   196.248930     0.000000 
  43.460000   189.000000     0.005291   194.726051     0.000000 
  43.480000   190.000000     0.005263   193.275801     0.000000 
  43.500000   179.000000     0.005587   191.894170     0.000000 
  43.520000   211.000000     0.004739   190.577450     0.000000 
  43.540000   189.000000     0.005291   189.322209     0.000000 
  43.560000   185.000000     0.005405   188.125267     0.000000 
  43.580000   192.000000     0.005208   186.983680     0.000000 
  43.600000   192.000000     0.005208   185.894714     0.000000 
  43.620000   205.000000     0.004878   184.855837     0.000000 
  43.640000   188.000000     0.005319   183.864697     0.000000 
  43.660000   200.000000     0.005000   182.919112     0.000000 
  43.680000   197.000000     0.005076   186.987755     0.000000 
  43.700000   172.000000     0.005814   186.184734     0.000000 
  43.720000   162.000000     0.006173   185.422620     0.000000 
  43.740000   189.000000     0.005291   184.699821     0.000000 
  43.760000   209.000000     0.004785   184.014864     0.000000 
  43.780000   185.000000     0.005405   183.366385     0.000000 
  43.800000   212.000000     0.004717   182.753131     0.000000 
  43.820000   188.000000     0.005319   182.173942     0.000000 
  43.840000   187.000000     0.005348   181.627757     0.000000 
  43.860000   200.000000     0.005000   181.113601     0.000000 
  43.880000   197.000000     0.005076   180.630586     0.000000 
  43.900000   230.000000     0.004348   180.177901     0.000000 
  43.920000   210.000000     0.004762   179.754818     0.000000 
  43.940000   195.000000     0.005128   179.360679     0.000000 
  43.960000   203.000000     0.004926   178.994901     0.000000 
  43.980000   184.000000     0.005435   178.656969     0.000000 
  44.000000   208.000000     0.004808   178.346439     0.000000 
  44.020000   191.000000     0.005236   178.062931     0.000000 
  44.040000   184.000000     0.005435   177.806132     0.000000 
  44.060000   210.000000     0.004762   177.575794     0.000000 
  44.080000   202.000000     0.004950   177.371735     0.000000 
  44.100000   183.000000     0.005464   177.193837     0.000000 
  44.120000   209.000000     0.004785   173.104914     0.000000 
  44.140000   204.000000     0.004902   173.028956     0.000000 
  44.160000   173.000000     0.005780   172.978265     0.000000 
  44.180000   210.000000     0.004762   172.953015     0.000000 
  44.200000   202.000000     0.004950   172.953449     0.000000 
  44.220000   220.000000     0.004545   172.979883     0.000000 
  44.240000   229.000000     0.004367   173.032710     0.000000 
  44.260000   221.000000     0.004525   173.112399     0.000000 
  44.280000   205.000000     0.004878   173.219505     0.000000 
  44.300000   208.000000     0.004808   173.354672     0.000000 
  44.320000   256.000000     0.003906   173.518634     0.000000 
  44.340000   217.000000     0.004608   173.712228     0.000000 
  44.360000   259.000000     0.003861   173.936395     0.000000 
  44.380000   227.000000     0.004405   174.192194     0.000000 
  44.400000   247.000000     0.004049   174.480804     0.000000 
  44.420000   274.000000     0.003650   174.803542     0.000000 
  44.440000   261.000000     0.003831   175.161867     0.000000 
  44.460000   293.000000     0.003413   175.557399     0.000000 
  44.480000   320.000000     0.003125   175.991931     0.000000 
  44.500000   367.000000     0.002725   176.467448     0.000000 
  44.520000   362.000000     0.002762   176.986141     0.000000 
  44.540000   386.000000     0.002591   177.550435     0.000000 
  44.560000   479.000000     0.002088   178.163010     0.000000 
  44.580000   507.000000     0.001972   178.826831     0.000000 
  44.600000   568.000000     0.001761   179.545177     0.000000 
  44.620000   615.000000     0.001626   180.321680     0.000000 
  44.640000   630.000000     0.001587   181.160366     0.000000 
  44.660000   744.000000     0.001344   182.065702     0.000000 
  44.680000   801.000000     0.001248   183.042653     0.000000 
  44.700000   788.000000     0.001269   184.096743     0.000000 
  44.720000   787.000000     0.001271   185.234132     0.000000 
  44.740000   763.000000     0.001311   186.461697     0.000000 
  44.760000   645.000000     0.001550   187.787134     0.000000 
  44.780000   585.000000     0.001709   189.219070     0.000000 
  44.800000   567.000000     0.001764   190.767201     0.000000 
  44.820000   553.000000     0.001808   192.442451     0.000000 
  44.840000   510.000000     0.001961   194.257152     0.000000 
  44.860000   465.000000     0.002151   196.225272     0.000000 
  44.880000   405.000000     0.002469   198.362671     0.000000 
  44.900000   385.000000     0.002597   200.687414     0.000000 
  44.920000   307.000000     0.003257   203.220145     0.000000 
  44.940000   294.000000     0.003401   205.984528     0.000000 
  44.960000   260.000000     0.003846   209.007794     0.000000 
  44.980000   323.000000     0.003096   212.321386     0.000000 
  45.000000   276.000000     0.003623   215.961764     0.000000 
  45.020000   266.000000     0.003759   219.971380     0.000000 
  45.040000   272.000000     0.003676   224.399869     0.000000 
  45.060000   244.000000     0.004098   229.305566     0.000000 
  45.080000   246.000000     0.004065   234.757378     0.000000 
  45.100000   257.000000     0.003891   240.837199     0.000000 
  45.120000   282.000000     0.003546   247.643076     0.000000 
  45.140000   278.000000     0.003597   255.293503     0.000000 
  45.160000   288.000000     0.003472   263.933485     0.000000 
  45.180000   313.000000     0.003195   273.743485     0.000000 
  45.200000   299.000000     0.003344   284.953033     0.000000 
  45.220000   282.000000     0.003546   297.861791     0.000000 
  45.240000   313.000000     0.003195   312.871909     0.000000 
  45.260000   323.000000     0.003096   330.536401     0.000000 
  45.280000   343.000000     0.002915   351.628014     0.000000 
  45.300000   397.000000     0.002519   377.230647     0.000000 
  45.320000   419.000000     0.002387   408.849558     0.000000 
  45.340000   456.000000     0.002193   448.526832     0.000000 
  45.360000   448.000000     0.002232   498.935978     0.000000 
  45.380000   510.000000     0.001961   563.417356     0.000000 
  45.400000   613.000000     0.001631   638.368035     0.000000 
  45.420000   608.000000     0.001645   743.281626     0.000000 
  45.440000   713.000000     0.001403   874.813814     0.000000 
  45.460000   892.000000     0.001121  1036.568817     0.000000 
  45.480000  1058.000000     0.000945  1230.403763     0.000000 
  45.500000  1370.000000     0.000730  1454.628326     0.000000 
  45.520000  1814.000000     0.000551  1700.939398     0.000000 
  45.540000  2150.000000     0.000465  1949.981592     0.000000 
  45.560000  2462.000000     0.000406  2167.743098     0.000000 
  45.580000  2486.000000     0.000402  2309.361244     0.000000 
  45.600000  2230.000000     0.000448  2336.743898     0.000000 
  45.620000  1924.000000     0.000520  2241.784266     0.000000 
  45.640000  1676.000000     0.000597  2052.117071     0.000000 
  45.660000  1618.000000     0.000618  1812.635235     0.000000 
  45.680000  1563.000000     0.000640  1563.196786     0.000000 
  45.700000  1536.000000     0.000651  1329.214745     0.000000 
  45.720000  1369.000000     0.000730  1123.129409     0.000000 
  45.740000  1126.000000     0.000888   948.994200     0.000000 
  45.760000   905.000000     0.001105   806.189435     0.000000 
  45.780000   817.000000     0.001224   691.697944     0.000000 
  45.800000   685.000000     0.001460   601.425921     0.000000 
  45.820000   665.000000     0.001504   531.006704     0.000000 
  45.840000   624.000000     0.001603   476.302993     0.000000 
  45.860000   608.000000     0.001645   433.711416     0.000000 
  45.880000   546.000000     0.001832   400.273301     0.000000 
  45.900000   559.000000     0.001789   373.689307     0.000000 
  45.920000   506.000000     0.001976   352.242096     0.000000 
  45.940000   514.000000     0.001946   334.685843     0.000000 
  45.960000   474.000000     0.002110   320.131460     0.000000 
  45.980000   428.000000     0.002336   307.946237     0.000000 
  46.000000   424.000000     0.002358   297.675368     0.000000 
  46.020000   425.000000     0.002353   288.985329     0.000000 
  46.040000   423.000000     0.002364   282.802775     0.000000 
  46.060000   410.000000     0.002439   276.592465     0.000000 
  46.080000   374.000000     0.002674   271.366660     0.000000 
  46.100000   341.000000     0.002933   267.003483     0.000000 
  46.120000   363.000000     0.002755   263.404454     0.000000 
  46.140000   332.000000     0.003012   260.489604     0.000000 
  46.160000   357.000000     0.002801   258.193978     0.000000 
  46.180000   339.000000     0.002950   256.465024     0.000000 
  46.200000   317.000000     0.003155   255.260624     0.000000 
  46.220000   342.000000     0.002924   254.547546     0.000000 
  46.240000   312.000000     0.003205   254.300285     0.000000 
  46.260000   310.000000     0.003226   254.500154     0.000000 
  46.280000   294.000000     0.003401   255.134598     0.000000 
  46.300000   300.000000     0.003333   256.196702     0.000000 
  46.320000   314.000000     0.003185   257.684857     0.000000 
  46.340000   312.000000     0.003205   259.602566     0.000000 
  46.360000   299.000000     0.003344   261.958378     0.000000 
  46.380000   331.000000     0.003021   264.765952     0.000000 
  46.400000   301.000000     0.003322   268.044238     0.000000 
  46.420000   384.000000     0.002604   271.817785     0.000000 
  46.440000   378.000000     0.002646   276.117193     0.000000 
  46.460000   387.000000     0.002584   280.979707     0.000000 
  46.480000   337.000000     0.002967   286.449983     0.000000 
  46.500000   372.000000     0.002688   292.581062     0.000000 
  46.520000   343.000000     0.002915   299.435577     0.000000 
  46.540000   378.000000     0.002646   307.087240     0.000000 
  46.560000   400.000000     0.002500   315.622685     0.000000 
  46.580000   422.000000     0.002370   325.143757     0.000000 
  46.600000   409.000000     0.002445   335.770282     0.000000 
  46.620000   406.000000     0.002463   347.643609     0.000000 
  46.640000   380.000000     0.002632   360.930965     0.000000 
  46.660000   428.000000     0.002336   377.378980     0.000000 
  46.680000   427.000000     0.002342   394.146155     0.000000 
  46.700000   422.000000     0.002370   413.049376     0.000000 
  46.720000   458.000000     0.002183   434.435977     0.000000 
  46.740000   450.000000     0.002222   458.734103     0.000000 
  46.760000   524.000000     0.001908   486.481217     0.000000 
  46.780000   496.000000     0.002016   518.367388     0.000000 
  46.800000   530.000000     0.001887   555.301152     0.000000 
  46.820000   578.000000     0.001730   598.507887     0.000000 
  46.840000   680.000000     0.001471   649.671317     0.000000 
  46.860000   698.000000     0.001433   711.125752     0.000000 
  46.880000   736.000000     0.001359   786.097524     0.000000 
  46.900000   835.000000     0.001198   878.976860     0.000000 
  46.920000   921.000000     0.001086   995.576655     0.000000 
  46.940000  1051.000000     0.000951  1143.306832     0.000000 
  46.960000  1262.000000     0.000792  1331.170923     0.000000 
  46.980000  1417.000000     0.000706  1569.483575     0.000000 
  47.000000  1688.000000     0.000592  1869.212497     0.000000 
  47.020000  1981.000000     0.000505  2240.836605     0.000000 
  47.040000  2495.000000     0.000401  2692.512667     0.000000 
  47.060000  3128.000000     0.000320  3227.050207     0.000000 
  47.080000  4117.000000     0.000243  3836.692528     0.000000 
  47.100000  5201.000000     0.000192  4494.483018     0.000000 
  47.120000  6225.000000     0.000161  5142.888463     0.000000 
  47.140000  7111.000000     0.000141  5687.348527     0.000000 
  47.160000  6880.000000     0.000145  6012.272260     0.000000 
  47.180000  5975.000000     0.000167  6030.372651     0.000000 
  47.200000  4895.000000     0.000204  5736.308643     0.000000 
  47.220000  4568.000000     0.000219  5210.360145     0.000000 
  47.240000  4446.000000     0.000225  4567.924835     0.000000 
  47.260000  4472.000000     0.000224  3907.325532     0.000000 
  47.280000  4079.000000     0.000245  3290.156010     0.000000 
  47.300000  3505.000000     0.000285  2746.218486     0.000000 
  47.320000  2712.000000     0.000369  2284.919937     0.000000 
  47.340000  2013.000000     0.000497  1904.321020     0.000000 
  47.360000  1573.000000     0.000636  1596.683119     0.000000 
  47.380000  1380.000000     0.000725  1351.679386     0.000000 
  47.400000  1200.000000     0.000833  1158.328853     0.000000 
  47.420000   965.000000     0.001036  1006.202144     0.000000 
  47.440000   886.000000     0.001129   886.127634     0.000000 
  47.460000   801.000000     0.001248   790.511315     0.000000 
  47.480000   722.000000     0.001385   713.366466     0.000000 
  47.500000   643.000000     0.001555   650.154270     0.000000 
  47.520000   564.000000     0.001773   597.530452     0.000000 
  47.540000   530.000000     0.001887   553.072183     0.000000 
  47.560000   477.000000     0.002096   515.031893     0.000000 
  47.580000   495.000000     0.002020   482.139183     0.000000 
  47.600000   447.000000     0.002237   453.453901     0.000000 
  47.620000   406.000000     0.002463   428.263428     0.000000 
  47.640000   384.000000     0.002604   406.013686     0.000000 
  47.660000   352.000000     0.002841   386.263734     0.000000 
  47.680000   333.000000     0.003003   368.655901     0.000000 
  47.700000   345.000000     0.002899   352.895746     0.000000 
  47.720000   309.000000     0.003236   338.738188     0.000000 
  47.740000   308.000000     0.003247   325.977494     0.000000 
  47.760000   308.000000     0.003247   314.439801     0.000000 
  47.780000   270.000000     0.003704   303.977340     0.000000 
  47.800000   284.000000     0.003521   294.463924     0.000000 
  47.820000   274.000000     0.003650   285.791263     0.000000 
  47.840000   268.000000     0.003731   277.866069     0.000000 
  47.860000   263.000000     0.003802   270.607651     0.000000 
  47.880000   235.000000     0.004255   263.945949     0.000000 
  47.900000   235.000000     0.004255   257.819919     0.000000 
  47.920000   239.000000     0.004184   252.176197     0.000000 
  47.940000   248.000000     0.004032   246.967982     0.000000 
  47.960000   236.000000     0.004237   242.154105     0.000000 
  47.980000   222.000000     0.004505   237.698248     0.000000 
  48.000000   231.000000     0.004329   233.568289     0.000000 
  48.020000   189.000000     0.005291   229.735742     0.000000 
  48.040000   219.000000     0.004566   226.175287     0.000000 
  48.060000   178.000000     0.005618   222.864368     0.000000 
  48.080000   207.000000     0.004831   219.782850     0.000000 
  48.100000   203.000000     0.004926   216.912725     0.000000 
  48.120000   196.000000     0.005102   214.237859     0.000000 
  48.140000   203.000000     0.004926   211.743775     0.000000 
  48.160000   176.000000     0.005682   209.417464     0.000000 
  48.180000   185.000000     0.005405   207.247225     0.000000 
  48.200000   164.000000     0.006098   205.222521     0.000000 
  48.220000   201.000000     0.004975   203.333857     0.000000 
  48.240000   167.000000     0.005988   201.572674     0.000000 
  48.260000   185.000000     0.005405   199.931256     0.000000 
  48.280000   212.000000     0.004717   198.402647     0.000000 
  48.300000   177.000000     0.005650   196.980581     0.000000 
  48.320000   158.000000     0.006329   195.659423     0.000000 
  48.340000   190.000000     0.005263   194.434111     0.000000 
  48.360000   188.000000     0.005319   193.300109     0.000000 
  48.380000   159.000000     0.006289   192.253370     0.000000 
  48.400000   197.000000     0.005076   191.290298     0.000000 
  48.420000   171.000000     0.005848   190.407716     0.000000 
  48.440000   169.000000     0.005917   189.602846     0.000000 
  48.460000   168.000000     0.005952   188.873281     0.000000 
  48.480000   160.000000     0.006250   188.216970     0.000000 
  48.500000   170.000000     0.005882   187.632205     0.000000 
  48.520000   156.000000     0.006410   187.117607     0.000000 
  48.540000   169.000000     0.005917   186.672120     0.000000 
  48.560000   187.000000     0.005348   186.295008     0.000000 
  48.580000   151.000000     0.006623   185.985852     0.000000 
  48.600000   176.000000     0.005682   185.744550     0.000000 
  48.620000   165.000000     0.006061   185.571328     0.000000 
  48.640000   167.000000     0.005988   185.466744     0.000000 
  48.660000   165.000000     0.006061   185.431701     0.000000 
  48.680000   206.000000     0.004854   185.467466     0.000000 
  48.700000   182.000000     0.005495   185.575690     0.000000 
  48.720000   168.000000     0.005952   185.758434     0.000000 
  48.740000   177.000000     0.005650   186.018198     0.000000 
  48.760000   166.000000     0.006024   186.357965     0.000000 
  48.780000   193.000000     0.005181   186.781241     0.000000 
  48.800000   166.000000     0.006024   187.292107     0.000000 
  48.820000   195.000000     0.005128   187.895291     0.000000 
  48.840000   180.000000     0.005556   188.596231     0.000000 
  48.860000   186.000000     0.005376   189.401173     0.000000 
  48.880000   175.000000     0.005714   190.317269     0.000000 
  48.900000   188.000000     0.005319   191.352699     0.000000 
  48.920000   167.000000     0.005988   192.516820     0.000000 
  48.940000   189.000000     0.005291   193.820338     0.000000 
  48.960000   179.000000     0.005587   195.275508     0.000000 
  48.980000   150.000000     0.006667   196.896383     0.000000 
  49.000000   196.000000     0.005102   198.699105     0.000000 
  49.020000   182.000000     0.005495   198.914365     0.000000 
  49.040000   202.000000     0.004950   201.160074     0.000000 
  49.060000   170.000000     0.005882   203.652146     0.000000 
  49.080000   203.000000     0.004926   206.419433     0.000000 
  49.100000   195.000000     0.005128   209.495576     0.000000 
  49.120000   201.000000     0.004975   212.919969     0.000000 
  49.140000   188.000000     0.005319   216.738964     0.000000 
  49.160000   196.000000     0.005102   221.007432     0.000000 
  49.180000   177.000000     0.005650   225.790822     0.000000 
  49.200000   223.000000     0.004484   231.167960     0.000000 
  49.220000   221.000000     0.004525   237.235017     0.000000 
  49.240000   250.000000     0.004000   244.111269     0.000000 
  49.260000   238.000000     0.004202   251.947650     0.000000 
  49.280000   240.000000     0.004167   260.939452     0.000000 
  49.300000   229.000000     0.004367   271.344906     0.000000 
  49.320000   271.000000     0.003690   283.511494     0.000000 
  49.340000   283.000000     0.003534   297.911356     0.000000 
  49.360000   296.000000     0.003378   315.185769     0.000000 
  49.380000   324.000000     0.003086   336.196008     0.000000 
  49.400000   332.000000     0.003012   362.073961     0.000000 
  49.420000   357.000000     0.002801   394.261386     0.000000 
  49.440000   390.000000     0.002564   434.522672     0.000000 
  49.460000   428.000000     0.002336   484.913914     0.000000 
  49.480000   486.000000     0.002058   547.690853     0.000000 
  49.500000   575.000000     0.001739   625.136415     0.000000 
  49.520000   649.000000     0.001541   719.275287     0.000000 
  49.540000   787.000000     0.001271   831.401722     0.000000 
  49.560000   901.000000     0.001110   961.265043     0.000000 
  49.580000  1095.000000     0.000913  1105.670593     0.000000 
  49.600000  1476.000000     0.000678  1256.359039     0.000000 
  49.620000  1652.000000     0.000605  1397.794346     0.000000 
  49.640000  1798.000000     0.000556  1507.257605     0.000000 
  49.660000  1714.000000     0.000583  1560.804586     0.000000 
  49.680000  1448.000000     0.000691  1544.803660     0.000000 
  49.700000  1229.000000     0.000814  1464.427268     0.000000 
  49.720000  1100.000000     0.000909  1340.306627     0.000000 
  49.740000  1161.000000     0.000861  1196.987372     0.000000 
  49.760000  1227.000000     0.000815  1053.778985     0.000000 
  49.780000  1111.000000     0.000900   922.252237     0.000000 
  49.800000   948.000000     0.001055   807.783799     0.000000 
  49.820000   821.000000     0.001218   711.888950     0.000000 
  49.840000   661.000000     0.001513   633.974128     0.000000 
  49.860000   569.000000     0.001757   572.401116     0.000000 
  49.880000   497.000000     0.002012   525.101882     0.000000 
  49.900000   467.000000     0.002141   489.947666     0.000000 
  49.920000   429.000000     0.002331   464.981310     0.000000 
  49.940000   380.000000     0.002632   448.562233     0.000000 
  49.960000   423.000000     0.002364   439.449477     0.000000 
  49.980000   395.000000     0.002532   436.842708     0.000000 
  50.000000   420.000000     0.002381   440.400036     0.000000 
  50.020000   403.000000     0.002481   450.248486     0.000000 
  50.040000   379.000000     0.002639   466.996198     0.000000 
  50.060000   458.000000     0.002183   491.746087     0.000000 
  50.080000   476.000000     0.002101   526.100948     0.000000 
  50.100000   496.000000     0.002016   572.142225     0.000000 
  50.120000   568.000000     0.001761   632.360539     0.000000 
  50.140000   582.000000     0.001718   709.514763     0.000000 
  50.160000   627.000000     0.001595   806.392207     0.000000 
  50.180000   728.000000     0.001374   925.421542     0.000000 
  50.200000   828.000000     0.001208  1068.031644     0.000000 
  50.220000  1012.000000     0.000988  1233.541823     0.000000 
  50.240000  1232.000000     0.000812  1417.272477     0.000000 
  50.260000  1547.000000     0.000646  1607.758622     0.000000 
  50.280000  1784.000000     0.000561  1784.981038     0.000000 
  50.300000  1809.000000     0.000553  1917.251945     0.000000 
  50.320000  1700.000000     0.000588  1975.157720     0.000000 
  50.340000  1438.000000     0.000695  1942.696292     0.000000 
  50.360000  1268.000000     0.000789  1828.120443     0.000000 
  50.380000  1191.000000     0.000840  1658.641420     0.000000 
  50.400000  1165.000000     0.000858  1465.592012     0.000000 
  50.420000  1186.000000     0.000843  1273.236304     0.000000 
  50.440000  1068.000000     0.000936  1095.947012     0.000000 
  50.460000  1020.000000     0.000980   940.280769     0.000000 
  50.480000   841.000000     0.001189   807.939057     0.000000 
  50.500000   685.000000     0.001460   697.971870     0.000000 
  50.520000   594.000000     0.001684   608.110607     0.000000 
  50.540000   432.000000     0.002315   535.532028     0.000000 
  50.560000   408.000000     0.002451   477.308143     0.000000 
  50.580000   367.000000     0.002725   430.679092     0.000000 
  50.600000   335.000000     0.002985   393.210224     0.000000 
  50.620000   326.000000     0.003067   362.863336     0.000000 
  50.640000   317.000000     0.003155   338.004021     0.000000 
  50.660000   259.000000     0.003861   317.366402     0.000000 
  50.680000   236.000000     0.004237   295.074599     0.000000 
  50.700000   239.000000     0.004184   280.316015     0.000000 
  50.720000   228.000000     0.004386   267.590089     0.000000 
  50.740000   221.000000     0.004525   256.508765     0.000000 
  50.760000   206.000000     0.004854   246.780556     0.000000 
  50.780000   202.000000     0.004950   238.182259     0.000000 
  50.800000   192.000000     0.005208   230.539206     0.000000 
  50.820000   160.000000     0.006250   223.711815     0.000000 
  50.840000   196.000000     0.005102   217.586493     0.000000 
  50.860000   182.000000     0.005495   212.069436     0.000000 
  50.880000   180.000000     0.005556   207.082292     0.000000 
  50.900000   141.000000     0.007092   202.559038     0.000000 
  50.920000   149.000000     0.006711   198.443648     0.000000 
  50.940000   160.000000     0.006250   194.688305     0.000000 
  50.960000   166.000000     0.006024   191.251988     0.000000 
  50.980000   164.000000     0.006098   188.099357     0.000000 
  51.000000   171.000000     0.005848   185.199826     0.000000 
  51.020000   160.000000     0.006250   182.526827     0.000000 
  51.040000   156.000000     0.006410   180.057197     0.000000 
  51.060000   140.000000     0.007143   177.770666     0.000000 
  51.080000   177.000000     0.005650   175.649437     0.000000 
  51.100000   164.000000     0.006098   173.677838     0.000000 
  51.120000   153.000000     0.006536   171.842020     0.000000 
  51.140000   149.000000     0.006711   170.129711     0.000000 
  51.160000   157.000000     0.006369   168.530009     0.000000 
  51.180000   128.000000     0.007812   167.033199     0.000000 
  51.200000   172.000000     0.005814   165.630602     0.000000 
  51.220000   149.000000     0.006711   164.314447     0.000000 
  51.240000   139.000000     0.007194   163.077759     0.000000 
  51.260000   127.000000     0.007874   161.914264     0.000000 
  51.280000   153.000000     0.006536   160.822213     0.000000 
  51.300000   137.000000     0.007299   159.788716     0.000000 
  51.320000   139.000000     0.007194   158.813017     0.000000 
  51.340000   148.000000     0.006757   157.890919     0.000000 
  51.360000   143.000000     0.006993   157.018609     0.000000 
  51.380000   140.000000     0.007143   156.192615     0.000000 
  51.400000   135.000000     0.007407   155.409774     0.000000 
  51.420000   117.000000     0.008547   154.667194     0.000000 
  51.440000   125.000000     0.008000   153.962233     0.000000 
  51.460000   125.000000     0.008000   153.292469     0.000000 
  51.480000   134.000000     0.007463   152.655679     0.000000 
  51.500000   143.000000     0.006993   152.049825     0.000000 
  51.520000   135.000000     0.007407   151.473028     0.000000 
  51.540000   146.000000     0.006849   150.923561     0.000000 
  51.560000   119.000000     0.008403   150.399829     0.000000 
  51.580000   123.000000     0.008130   149.900364     0.000000 
  51.600000   118.000000     0.008475   149.423804     0.000000 
  51.620000   152.000000     0.006579   148.968894     0.000000 
  51.640000   124.000000     0.008065   148.534469     0.000000 
  51.660000   120.000000     0.008333   148.119452     0.000000 
  51.680000   129.000000     0.007752   147.722844     0.000000 
  51.700000   137.000000     0.007299   147.343715     0.000000 
  51.720000   127.000000     0.007874   146.981206     0.000000 
  51.740000   126.000000     0.007937   146.634515     0.000000 
  51.760000   147.000000     0.006803   146.302898     0.000000 
  51.780000   120.000000     0.008333   145.985664     0.000000 
  51.800000   130.000000     0.007692   145.682169     0.000000 
  51.820000   146.000000     0.006849   145.391813     0.000000 
  51.840000   124.000000     0.008065   145.114040     0.000000 
  51.860000   133.000000     0.007519   144.848330     0.000000 
  51.880000   139.000000     0.007194   144.594201     0.000000 
  51.900000   138.000000     0.007246   144.351203     0.000000 
  51.920000   114.000000     0.008772   144.118919     0.000000 
  51.940000   125.000000     0.008000   143.896959     0.000000 
  51.960000   125.000000     0.008000   143.684965     0.000000 
  51.980000   127.000000     0.007874   143.482600     0.000000 
  52.000000   122.000000     0.008197   143.289555     0.000000 
  52.020000   111.000000     0.009009   143.105542     0.000000 
  52.040000   153.000000     0.006536   142.930298     0.000000 
  52.060000   121.000000     0.008264   142.763577     0.000000 
  52.080000   111.000000     0.009009   142.605156     0.000000 
  52.100000   127.000000     0.007874   142.454829     0.000000 
  52.120000   116.000000     0.008621   142.312410     0.000000 
  52.140000   143.000000     0.006993   142.177728     0.000000 
  52.160000   127.000000     0.007874   142.050630     0.000000 
  52.180000   138.000000     0.007246   141.930981     0.000000 
  52.200000   100.000000     0.010000   141.818660     0.000000 
  52.220000   129.000000     0.007752   141.713560     0.000000 
  52.240000   127.000000     0.007874   141.615592     0.000000 
  52.260000   136.000000     0.007353   141.524680     0.000000 
  52.280000   123.000000     0.008130   141.440764     0.000000 
  52.300000   125.000000     0.008000   141.363796     0.000000 
  52.320000   143.000000     0.006993   141.293745     0.000000 
  52.340000   132.000000     0.007576   141.230592     0.000000 
  52.360000   123.000000     0.008130   141.174335     0.000000 
  52.380000   145.000000     0.006897   141.124983     0.000000 
  52.400000   106.000000     0.009434   141.082564     0.000000 
  52.420000   122.000000     0.008197   141.047118     0.000000 
  52.440000   134.000000     0.007463   141.018701     0.000000 
  52.460000   122.000000     0.008197   140.997383     0.000000 
  52.480000   117.000000     0.008547   140.983254     0.000000 
  52.500000   135.000000     0.007407   140.976417     0.000000 
  52.520000   130.000000     0.007692   140.980766     0.000000 
  52.540000   146.000000     0.006849   140.988935     0.000000 
  52.560000   120.000000     0.008333   141.004817     0.000000 
  52.580000   115.000000     0.008696   141.028591     0.000000 
  52.600000   120.000000     0.008333   141.060455     0.000000 
  52.620000   145.000000     0.006897   141.100630     0.000000 
  52.640000   133.000000     0.007519   141.149363     0.000000 
  52.660000   121.000000     0.008264   141.206921     0.000000 
  52.680000   110.000000     0.009091   141.273600     0.000000 
  52.700000   126.000000     0.007937   141.349725     0.000000 
  52.720000   147.000000     0.006803   141.435651     0.000000 
  52.740000   135.000000     0.007407   141.531762     0.000000 
  52.760000   145.000000     0.006897   141.638483     0.000000 
  52.780000   111.000000     0.009009   141.756271     0.000000 
  52.800000   121.000000     0.008264   141.885627     0.000000 
  52.820000   123.000000     0.008130   142.027094     0.000000 
  52.840000   142.000000     0.007042   142.181267     0.000000 
  52.860000   125.000000     0.008000   142.348787     0.000000 
  52.880000   123.000000     0.008130   142.530356     0.000000 
  52.900000   119.000000     0.008403   142.726738     0.000000 
  52.920000   117.000000     0.008547   142.938762     0.000000 
  52.940000   138.000000     0.007246   143.167333     0.000000 
  52.960000   115.000000     0.008696   143.413437     0.000000 
  52.980000   148.000000     0.006757   143.678151     0.000000 
  53.000000   136.000000     0.007353   143.962648     0.000000 
  53.020000   133.000000     0.007519   144.268212     0.000000 
  53.040000   137.000000     0.007299   144.596248     0.000000 
  53.060000   128.000000     0.007812   144.948292     0.000000 
  53.080000   119.000000     0.008403   145.326030     0.000000 
  53.100000   124.000000     0.008065   145.731315     0.000000 
  53.120000   138.000000     0.007246   146.166181     0.000000 
  53.140000   116.000000     0.008621   146.632868     0.000000 
  53.160000   126.000000     0.007937   147.133848     0.000000 
  53.180000   157.000000     0.006369   147.671850     0.000000 
  53.200000   141.000000     0.007092   148.249895     0.000000 
  53.220000   122.000000     0.008197   148.871330     0.000000 
  53.240000   141.000000     0.007092   149.539874     0.000000 
  53.260000   145.000000     0.006897   150.259663     0.000000 
  53.280000   130.000000     0.007692   151.035312     0.000000 
  53.300000   129.000000     0.007752   151.871978     0.000000 
  53.320000   125.000000     0.008000   151.617513     0.000000 
  53.340000   149.000000     0.006711   152.606806     0.000000 
  53.360000   134.000000     0.007463   153.676477     0.000000 
  53.380000   152.000000     0.006579   154.834772     0.000000 
  53.400000   129.000000     0.007752   156.091023     0.000000 
  53.420000   125.000000     0.008000   157.455820     0.000000 
  53.440000   136.000000     0.007353   158.941222     0.000000 
  53.460000   154.000000     0.006494   160.560998     0.000000 
  53.480000   147.000000     0.006803   162.330930     0.000000 
  53.500000   140.000000     0.007143   164.269159     0.000000 
  53.520000   140.000000     0.007143   166.396628     0.000000 
  53.540000   147.000000     0.006803   168.737601     0.000000 
  53.560000   155.000000     0.006452   171.320320     0.000000 
  53.580000   143.000000     0.006993   174.177806     0.000000 
  53.600000   161.000000     0.006211   177.348896     0.000000 
  53.620000   164.000000     0.006098   180.879567     0.000000 
  53.640000   129.000000     0.007752   184.824713     0.000000 
  53.660000   157.000000     0.006369   189.250566     0.000000 
  53.680000   157.000000     0.006369   194.238092     0.000000 
  53.700000   159.000000     0.006289   199.887833     0.000000 
  53.720000   182.000000     0.005495   206.326826     0.000000 
  53.740000   179.000000     0.005587   213.718424     0.000000 
  53.760000   191.000000     0.005236   222.275878     0.000000 
  53.780000   215.000000     0.004651   232.280426     0.000000 
  53.800000   219.000000     0.004566   244.104145     0.000000 
  53.820000   247.000000     0.004049   258.236838     0.000000 
  53.840000   240.000000     0.004167   275.314759     0.000000 
  53.860000   275.000000     0.003636   296.147106     0.000000 
  53.880000   292.000000     0.003425   321.734362     0.000000 
  53.900000   296.000000     0.003378   353.271089     0.000000 
  53.920000   355.000000     0.002817   392.134797     0.000000 
  53.940000   356.000000     0.002809   439.791584     0.000000 
  53.960000   392.000000     0.002551   497.752748     0.000000 
  53.980000   496.000000     0.002016   567.355371     0.000000 
  54.000000   592.000000     0.001689   649.454169     0.000000 
  54.020000   715.000000     0.001399   742.332810     0.000000 
  54.040000   866.000000     0.001155   846.831409     0.000000 
  54.060000  1089.000000     0.000918   955.754279     0.000000 
  54.080000  1362.000000     0.000734  1058.572730     0.000000 
  54.100000  1415.000000     0.000707  1139.926992     0.000000 
  54.120000  1307.000000     0.000765  1183.235027     0.000000 
  54.140000  1149.000000     0.000870  1177.882928     0.000000 
  54.160000   967.000000     0.001034  1125.246398     0.000000 
  54.180000   815.000000     0.001227  1037.854611     0.000000 
  54.200000   843.000000     0.001186   932.549093     0.000000 
  54.220000   881.000000     0.001135   823.819036     0.000000 
  54.240000   909.000000     0.001100   721.081404     0.000000 
  54.260000   784.000000     0.001276   629.131504     0.000000 
  54.280000   725.000000     0.001379   549.652030     0.000000 
  54.300000   560.000000     0.001786   482.550853     0.000000 
  54.320000   444.000000     0.002252   426.834041     0.000000 
  54.340000   393.000000     0.002545   381.109044     0.000000 
  54.360000   292.000000     0.003425   343.865945     0.000000 
  54.380000   292.000000     0.003425   313.637309     0.000000 
  54.400000   254.000000     0.003937   289.089044     0.000000 
  54.420000   261.000000     0.003831   269.066973     0.000000 
  54.440000   214.000000     0.004673   252.612114     0.000000 
  54.460000   204.000000     0.004902   238.953916     0.000000 
  54.480000   211.000000     0.004739   227.489609     0.000000 
  54.500000   178.000000     0.005618   217.756807     0.000000 
  54.520000   183.000000     0.005464   209.404897     0.000000 
  54.540000   145.000000     0.006897   202.168885     0.000000 
  54.560000   180.000000     0.005556   195.847538     0.000000 
  54.580000   156.000000     0.006410   190.286292     0.000000 
  54.600000   176.000000     0.005682   185.364545     0.000000 
  54.620000   155.000000     0.006452   180.986530     0.000000 
  54.640000   149.000000     0.006711   177.074899     0.000000 
  54.660000   176.000000     0.005682   173.566243     0.000000 
  54.680000   179.000000     0.005587   170.407943     0.000000 
  54.700000   136.000000     0.007353   167.555914     0.000000 
  54.720000   167.000000     0.005988   164.972956     0.000000 
  54.740000   136.000000     0.007353   162.627514     0.000000 
  54.760000   170.000000     0.005882   160.492723     0.000000 
  54.780000   130.000000     0.007692   158.545674     0.000000 
  54.800000   163.000000     0.006135   156.766839     0.000000 
  54.820000   151.000000     0.006623   155.139631     0.000000 
  54.840000   148.000000     0.006757   153.650070     0.000000 
  54.860000   143.000000     0.006993   152.286539     0.000000 
  54.880000   126.000000     0.007937   151.380197     0.000000 
  54.900000   146.000000     0.006849   150.245878     0.000000 
  54.920000   144.000000     0.006944   149.215421     0.000000 
  54.940000   139.000000     0.007194   148.285224     0.000000 
  54.960000   145.000000     0.006897   147.453334     0.000000 
  54.980000   141.000000     0.007092   146.719175     0.000000 
  55.000000   120.000000     0.008333   146.083149     0.000000 
  55.020000   137.000000     0.007299   145.545999     0.000000 
  55.040000   134.000000     0.007463   145.107755     0.000000 
  55.060000   145.000000     0.006897   144.765888     0.000000 
  55.080000   122.000000     0.008197   144.512130     0.000000 
  55.100000   137.000000     0.007299   144.327447     0.000000 
  55.120000   119.000000     0.008403   144.175841     0.000000 
  55.140000   129.000000     0.007752   144.000805     0.000000 
  55.160000   125.000000     0.008000   143.732307     0.000000 
  55.180000   132.000000     0.007576   143.309925     0.000000 
  55.200000   124.000000     0.008065   142.712334     0.000000 
  55.220000   131.000000     0.007634   141.968721     0.000000 
  55.240000   125.000000     0.008000   141.140765     0.000000 
  55.260000   139.000000     0.007194   140.292663     0.000000 
  55.280000   129.000000     0.007752   139.471803     0.000000 
  55.300000   128.000000     0.007812   138.705134     0.000000 
  55.320000   142.000000     0.007042   138.003919     0.000000 
  55.340000   143.000000     0.006993   137.369782     0.000000 
  55.360000   119.000000     0.008403   136.799217     0.000000 
  55.380000   144.000000     0.006944   136.286312     0.000000 
  55.400000   129.000000     0.007752   135.824285     0.000000 
  55.420000   142.000000     0.007042   135.406323     0.000000 
  55.440000   139.000000     0.007194   135.026053     0.000000 
  55.460000   117.000000     0.008547   134.677794     0.000000 
  55.480000   119.000000     0.008403   134.356668     0.000000 
  55.500000   134.000000     0.007463   134.058605     0.000000 
  55.520000   150.000000     0.006667   133.780286     0.000000 
  55.540000   122.000000     0.008197   133.519048     0.000000 
  55.560000   146.000000     0.006849   133.272766     0.000000 
  55.580000   114.000000     0.008772   133.039748     0.000000 
  55.600000   122.000000     0.008197   132.818634     0.000000 
  55.620000   159.000000     0.006289   132.608319     0.000000 
  55.640000   122.000000     0.008197   132.407891     0.000000 
  55.660000   149.000000     0.006711   132.216585     0.000000 
  55.680000   146.000000     0.006849   132.033749     0.000000 
  55.700000   126.000000     0.007937   131.858823     0.000000 
  55.720000   132.000000     0.007576   131.691319     0.000000 
  55.740000   147.000000     0.006803   131.530811     0.000000 
  55.760000   124.000000     0.008065   131.376929     0.000000 
  55.780000   119.000000     0.008403   131.229345     0.000000 
  55.800000   140.000000     0.007143   131.087775     0.000000 
  55.820000   139.000000     0.007194   130.951975     0.000000 
  55.840000   118.000000     0.008475   130.821733     0.000000 
  55.860000   131.000000     0.007634   130.696876     0.000000 
  55.880000   121.000000     0.008264   130.577260     0.000000 
  55.900000   132.000000     0.007576   130.462779     0.000000 
  55.920000   145.000000     0.006897   130.353359     0.000000 
  55.940000   125.000000     0.008000   130.248967     0.000000 
  55.960000   143.000000     0.006993   130.149606     0.000000 
  55.980000   131.000000     0.007634   130.055329     0.000000 
  56.000000   112.000000     0.008929   129.966240     0.000000 
  56.020000   119.000000     0.008403   129.882510     0.000000 
  56.040000   136.000000     0.007353   129.804389     0.000000 
  56.060000   152.000000     0.006579   129.732231     0.000000 
  56.080000   128.000000     0.007812   129.666525     0.000000 
  56.100000   129.000000     0.007752   129.607941     0.000000 
  56.120000   141.000000     0.007092   129.557387     0.000000 
  56.140000   123.000000     0.008130   129.516081     0.000000 
  56.160000   134.000000     0.007463   129.486189     0.000000 
  56.180000   123.000000     0.008130   129.468741     0.000000 
  56.200000   137.000000     0.007299   129.466984     0.000000 
  56.220000   136.000000     0.007353   129.484287     0.000000 
  56.240000   135.000000     0.007407   129.524720     0.000000 
  56.260000   128.000000     0.007812   129.593024     0.000000 
  56.280000   131.000000     0.007634   129.694478     0.000000 
  56.300000   140.000000     0.007143   129.834636     0.000000 
  56.320000   128.000000     0.007812   130.018812     0.000000 
  56.340000   147.000000     0.006803   130.251145     0.000000 
  56.360000   124.000000     0.008065   130.532882     0.000000 
  56.380000   129.000000     0.007752   130.859348     0.000000 
  56.400000   129.000000     0.007752   131.215209     0.000000 
  56.420000   135.000000     0.007407   131.568776     0.000000 
  56.440000   146.000000     0.006849   131.869085     0.000000 
  56.460000   140.000000     0.007143   132.052988     0.000000 
  56.480000   125.000000     0.008000   132.066923     0.000000 
  56.500000   122.000000     0.008197   131.893822     0.000000 
  56.520000   115.000000     0.008696   131.563061     0.000000 
  56.540000   145.000000     0.006897   131.133698     0.000000 
  56.560000   127.000000     0.007874   130.667001     0.000000 
  56.580000   147.000000     0.006803   130.208622     0.000000 
  56.600000   112.000000     0.008929   129.785098     0.000000 
  56.620000   140.000000     0.007143   129.408158     0.000000 
  56.640000   149.000000     0.006711   129.080368     0.000000 
  56.660000   129.000000     0.007752   128.799382     0.000000 
  56.680000   106.000000     0.009434   128.560550     0.000000 
  56.700000   122.000000     0.008197   128.358367     0.000000 
  56.720000   147.000000     0.006803   128.187266     0.000000 
  56.740000   125.000000     0.008000   128.042043     0.000000 
  56.760000   110.000000     0.009091   127.918081     0.000000 
  56.780000   142.000000     0.007042   127.811450     0.000000 
  56.800000   140.000000     0.007143   127.718912     0.000000 
  56.820000   130.000000     0.007692   127.637873     0.000000 
  56.840000   123.000000     0.008130   127.566305     0.000000 
  56.860000   160.000000     0.006250   127.502642     0.000000 
  56.880000   102.000000     0.009804   127.445694     0.000000 
  56.900000   124.000000     0.008065   127.394556     0.000000 
  56.920000   107.000000     0.009346   127.348541     0.000000 
  56.940000   137.000000     0.007299   127.307124     0.000000 
  56.960000   141.000000     0.007092   127.269903     0.000000 
  56.980000   132.000000     0.007576   127.236567     0.000000 
  57.000000   110.000000     0.009091   127.206879     0.000000 
  57.020000   140.000000     0.007143   127.180655     0.000000 
  57.040000   125.000000     0.008000   127.157760     0.000000 
  57.060000   106.000000     0.009434   127.138098     0.000000 
  57.080000   120.000000     0.008333   127.121603     0.000000 
  57.100000   118.000000     0.008475   127.108242     0.000000 
  57.120000   125.000000     0.008000   127.098008     0.000000 
  57.140000   151.000000     0.006623   127.090918     0.000000 
  57.160000   116.000000     0.008621   127.087016     0.000000 
  57.180000   133.000000     0.007519   127.086368     0.000000 
  57.200000   122.000000     0.008197   127.089062     0.000000 
  57.220000   126.000000     0.007937   127.095214     0.000000 
  57.240000   109.000000     0.009174   127.104964     0.000000 
  57.260000   125.000000     0.008000   127.118480     0.000000 
  57.280000   108.000000     0.009259   127.135961     0.000000 
  57.300000   116.000000     0.008621   127.157639     0.000000 
  57.320000   117.000000     0.008547   127.183784     0.000000 
  57.340000   114.000000     0.008772   127.214709     0.000000 
  57.360000   124.000000     0.008065   127.250777     0.000000 
  57.380000   116.000000     0.008621   127.292408     0.000000 
  57.400000   124.000000     0.008065   127.340094     0.000000 
  57.420000   119.000000     0.008403   127.394403     0.000000 
  57.440000   125.000000     0.008000   127.456008     0.000000 
  57.460000   132.000000     0.007576   127.525701     0.000000 
  57.480000   127.000000     0.007874   127.604432     0.000000 
  57.500000   115.000000     0.008696   127.693348     0.000000 
  57.520000   109.000000     0.009174   127.793856     0.000000 
  57.540000   122.000000     0.008197   127.907705     0.000000 
  57.560000   103.000000     0.009709   128.037100     0.000000 
  57.580000   121.000000     0.008264   128.184845     0.000000 
  57.600000   121.000000     0.008264   128.354525     0.000000 
  57.620000   142.000000     0.007042   128.550720     0.000000 
  57.640000   130.000000     0.007692   128.779233     0.000000 
  57.660000   126.000000     0.007937   129.047323     0.000000 
  57.680000   114.000000     0.008772   129.363884     0.000000 
  57.700000   106.000000     0.009434   129.739548     0.000000 
  57.720000   101.000000     0.009901   130.186637     0.000000 
  57.740000   122.000000     0.008197   130.718891     0.000000 
  57.760000   106.000000     0.009434   131.350845     0.000000 
  57.780000   117.000000     0.008547   132.096604     0.000000 
  57.800000   119.000000     0.008403   132.967492     0.000000 
  57.820000   126.000000     0.007937   133.967677     0.000000 
  57.840000   127.000000     0.007874   135.155974     0.000000 
  57.860000   136.000000     0.007353   136.356268     0.000000 
  57.880000   123.000000     0.008130   137.558370     0.000000 
  57.900000   148.000000     0.006757   138.634361     0.000000 
  57.920000   119.000000     0.008403   139.424778     0.000000 
  57.940000   143.000000     0.006993   139.792445     0.000000 
  57.960000   140.000000     0.007143   139.690273     0.000000 
  57.980000   122.000000     0.008197   139.188780     0.000000 
  58.000000   122.000000     0.008197   137.509559     0.000000 
  58.020000   130.000000     0.007692   136.675292     0.000000 
  58.040000   113.000000     0.008850   135.869868     0.000000 
  58.060000   140.000000     0.007143   135.165554     0.000000 
  58.080000   131.000000     0.007634   134.596017     0.000000 
  58.100000   134.000000     0.007463   134.170754     0.000000 
  58.120000   136.000000     0.007353   133.886358     0.000000 
  58.140000   127.000000     0.007874   133.733537     0.000000 
  58.160000   121.000000     0.008264   133.701056     0.000000 
  58.180000   125.000000     0.008000   133.777854     0.000000 
  58.200000   116.000000     0.008621   133.954178     0.000000 
  58.220000   121.000000     0.008264   134.222190     0.000000 
  58.240000   104.000000     0.009615   134.576261     0.000000 
  58.260000   127.000000     0.007874   135.013069     0.000000 
  58.280000   147.000000     0.006803   135.531587     0.000000 
  58.300000   128.000000     0.007812   136.133007     0.000000 
  58.320000   141.000000     0.007092   136.820661     0.000000 
  58.340000   124.000000     0.008065   137.599968     0.000000 
  58.360000   122.000000     0.008197   138.478449     0.000000 
  58.380000   113.000000     0.008850   139.465823     0.000000 
  58.400000   129.000000     0.007752   140.574206     0.000000 
  58.420000   134.000000     0.007463   141.818440     0.000000 
  58.440000   123.000000     0.008130   143.216571     0.000000 
  58.460000   140.000000     0.007143   144.790536     0.000000 
  58.480000   134.000000     0.007463   146.567121     0.000000 
  58.500000   145.000000     0.006897   148.579293     0.000000 
  58.520000   128.000000     0.007812   150.868053     0.000000 
  58.540000   140.000000     0.007143   153.484965     0.000000 
  58.560000   144.000000     0.006944   156.495567     0.000000 
  58.580000   170.000000     0.005882   159.983807     0.000000 
  58.600000   151.000000     0.006623   164.057602     0.000000 
  58.620000   167.000000     0.005988   168.855441     0.000000 
  58.640000   176.000000     0.005682   174.553696     0.000000 
  58.660000   159.000000     0.006289   181.374014     0.000000 
  58.680000   183.000000     0.005464   189.589780     0.000000 
  58.700000   209.000000     0.004785   199.530322     0.000000 
  58.720000   198.000000     0.005051   211.581129     0.000000 
  58.740000   197.000000     0.005076   226.177720     0.000000 
  58.760000   237.000000     0.004219   244.029649     0.000000 
  58.780000   238.000000     0.004202   265.126482     0.000000 
  58.800000   284.000000     0.003521   290.105816     0.000000 
  58.820000   299.000000     0.003344   319.168817     0.000000 
  58.840000   365.000000     0.002740   352.085122     0.000000 
  58.860000   355.000000     0.002817   387.817680     0.000000 
  58.880000   445.000000     0.002247   424.041147     0.000000 
  58.900000   447.000000     0.002237   456.799985     0.000000 
  58.920000   484.000000     0.002066   480.849243     0.000000 
  58.940000   415.000000     0.002410   491.182776     0.000000 
  58.960000   431.000000     0.002320   485.319155     0.000000 
  58.980000   368.000000     0.002717   464.680373     0.000000 
  59.000000   370.000000     0.002703   433.783324     0.000000 
  59.020000   349.000000     0.002865   398.014204     0.000000 
  59.040000   328.000000     0.003049   361.777358     0.000000 
  59.060000   375.000000     0.002667   327.845655     0.000000 
  59.080000   362.000000     0.002762   297.573382     0.000000 
  59.100000   331.000000     0.003021   271.372357     0.000000 
  59.120000   319.000000     0.003135   249.142694     0.000000 
  59.140000   231.000000     0.004329   231.393744     0.000000 
  59.160000   211.000000     0.004739   215.930188     0.000000 
  59.180000   231.000000     0.004329   203.143316     0.000000 
  59.200000   182.000000     0.005495   192.585663     0.000000 
  59.220000   165.000000     0.006061   183.856377     0.000000 
  59.240000   189.000000     0.005291   176.609784     0.000000 
  59.260000   173.000000     0.005780   170.556696     0.000000 
  59.280000   174.000000     0.005747   165.461138     0.000000 
  59.300000   165.000000     0.006061   161.134377     0.000000 
  59.320000   153.000000     0.006536   157.427677     0.000000 
  59.340000   177.000000     0.005650   154.224877     0.000000 
  59.360000   143.000000     0.006993   151.435531     0.000000 
  59.380000   144.000000     0.006944   148.989034     0.000000 
  59.400000   164.000000     0.006098   146.829853     0.000000 
  59.420000   151.000000     0.006623   144.913829     0.000000 
  59.440000   131.000000     0.007634   143.205401     0.000000 
  59.460000   124.000000     0.008065   141.675557     0.000000 
  59.480000   125.000000     0.008000   140.300344     0.000000 
  59.500000   173.000000     0.005780   139.059776     0.000000 
  59.520000   154.000000     0.006494   137.937029     0.000000 
  59.540000   166.000000     0.006024   136.917834     0.000000 
  59.560000   170.000000     0.005882   135.990020     0.000000 
  59.580000   152.000000     0.006579   135.143146     0.000000 
  59.600000   154.000000     0.006494   134.368218     0.000000 
  59.620000   135.000000     0.007407   133.657454     0.000000 
  59.640000   133.000000     0.007519   133.004098     0.000000 
  59.660000   144.000000     0.006944   132.402265     0.000000 
  59.680000   158.000000     0.006329   131.846810     0.000000 
  59.700000   133.000000     0.007519   131.333223     0.000000 
  59.720000   144.000000     0.006944   130.857540     0.000000 
  59.740000   115.000000     0.008696   130.416271     0.000000 
  59.760000   143.000000     0.006993   130.006330     0.000000 
  59.780000   123.000000     0.008130   129.624991     0.000000 
  59.800000   133.000000     0.007519   129.269839     0.000000 
  59.820000   139.000000     0.007194   128.938734     0.000000 
  59.840000   139.000000     0.007194   128.629781     0.000000 
  59.860000   125.000000     0.008000   128.341304     0.000000 
  59.880000   126.000000     0.007937   128.071827     0.000000 
  59.900000   120.000000     0.008333   127.820062     0.000000 
  59.920000   117.000000     0.008547   127.584893     0.000000 
  59.940000   120.000000     0.008333   127.365374     0.000000 
  59.960000   135.000000     0.007407   127.160723     0.000000 
  59.980000   145.000000     0.006897   126.970325     0.000000 
  60.000000   143.000000     0.006993   126.793727     0.000000 
  60.020000   124.000000     0.008065   126.630637     0.000000 
  60.040000   116.000000     0.008621   126.480924     0.000000 
  60.060000   110.000000     0.009091   126.344599     0.000000 
  60.080000    92.000000     0.010870   126.221793     0.000000 
  60.100000   129.000000     0.007752   126.112704     0.000000 
  60.120000   139.000000     0.007194   126.017501     0.000000 
  60.140000   123.000000     0.008130   125.936133     0.000000 
  60.160000   132.000000     0.007576   125.867987     0.000000 
  60.180000   131.000000     0.007634   125.811334     0.000000 
  60.200000   123.000000     0.008130   125.762586     0.000000 
  60.220000   142.000000     0.007042   125.715685     0.000000 
  60.240000   125.000000     0.008000   125.662411     0.000000 
  60.260000   145.000000     0.006897   125.594430     0.000000 
  60.280000   141.000000     0.007092   125.506758     0.000000 
  60.300000   123.000000     0.008130   125.401659     0.000000 
  60.320000   136.000000     0.007353   125.282633     0.000000 
  60.340000   126.000000     0.007937   125.159209     0.000000 
  60.360000   121.000000     0.008264   125.038484     0.000000 
  60.380000   131.000000     0.007634   124.925100     0.000000 
  60.400000   121.000000     0.008264   124.821383     0.000000 
  60.420000   127.000000     0.007874   124.728063     0.000000 
  60.440000   123.000000     0.008130   124.644961     0.000000 
  60.460000   130.000000     0.007692   124.567734     0.000000 
  60.480000   128.000000     0.007812   124.503077     0.000000 
  60.500000   139.000000     0.007194   124.446417     0.000000 
  60.520000   141.000000     0.007092   124.396991     0.000000 
  60.540000   141.000000     0.007092   124.354116     0.000000 
  60.560000   111.000000     0.009009   124.317203     0.000000 
  60.580000   122.000000     0.008197   124.285759     0.000000 
  60.600000   126.000000     0.007937   124.259385     0.000000 
  60.620000   145.000000     0.006897   124.237760     0.000000 
  60.640000   124.000000     0.008065   124.220636     0.000000 
  60.660000   134.000000     0.007463   124.207824     0.000000 
  60.680000   117.000000     0.008547   124.199186     0.000000 
  60.700000   117.000000     0.008547   124.194624     0.000000 
  60.720000   120.000000     0.008333   124.194075     0.000000 
  60.740000   121.000000     0.008264   124.197502     0.000000 
  60.760000   113.000000     0.008850   124.204894     0.000000 
  60.780000   107.000000     0.009346   124.216260     0.000000 
  60.800000   119.000000     0.008403   124.231629     0.000000 
  60.820000   139.000000     0.007194   124.251047     0.000000 
  60.840000   145.000000     0.006897   124.274577     0.000000 
  60.860000   131.000000     0.007634   124.302299     0.000000 
  60.880000   153.000000     0.006536   124.334309     0.000000 
  60.900000   135.000000     0.007407   124.370721     0.000000 
  60.920000   132.000000     0.007576   124.411667     0.000000 
  60.940000   130.000000     0.007692   124.457295     0.000000 
  60.960000   131.000000     0.007634   124.507774     0.000000 
  60.980000   153.000000     0.006536   124.563294     0.000000 
  61.000000   142.000000     0.007042   124.624067     0.000000 
  61.020000   143.000000     0.006993   124.690330     0.000000 
  61.040000   142.000000     0.007042   124.762345     0.000000 
  61.060000   140.000000     0.007143   124.840404     0.000000 
  61.080000   108.000000     0.009259   124.924831     0.000000 
  61.100000   139.000000     0.007194   125.015985     0.000000 
  61.120000   159.000000     0.006289   125.114265     0.000000 
  61.140000   138.000000     0.007246   125.220115     0.000000 
  61.160000   141.000000     0.007092   125.334027     0.000000 
  61.180000   136.000000     0.007353   125.456549     0.000000 
  61.200000   113.000000     0.008850   125.588296     0.000000 
  61.220000   126.000000     0.007937   125.729949     0.000000 
  61.240000   125.000000     0.008000   125.882276     0.000000 
  61.260000   146.000000     0.006849   126.046138     0.000000 
  61.280000   113.000000     0.008850   126.222501     0.000000 
  61.300000   110.000000     0.009091   126.412460     0.000000 
  61.320000   152.000000     0.006579   126.617250     0.000000 
  61.340000   123.000000     0.008130   126.838278     0.000000 
  61.360000   107.000000     0.009346   127.077143     0.000000 
  61.380000   139.000000     0.007194   127.335676     0.000000 
  61.400000   117.000000     0.008547   127.615980     0.000000 
  61.420000   122.000000     0.008197   127.920478     0.000000 
  61.440000   141.000000     0.007092   128.251978     0.000000 
  61.460000   147.000000     0.006803   128.613749     0.000000 
  61.480000   136.000000     0.007353   129.009621     0.000000 
  61.500000   150.000000     0.006667   129.444113     0.000000 
  61.520000   130.000000     0.007692   129.922597     0.000000 
  61.540000   122.000000     0.008197   130.451515     0.000000 
  61.560000   137.000000     0.007299   131.038675     0.000000 
  61.580000   132.000000     0.007576   131.693632     0.000000 
  61.600000   131.000000     0.007634   132.428201     0.000000 
  61.620000   130.000000     0.007692   133.257107     0.000000 
  61.640000   126.000000     0.007937   134.198817     0.000000 
  61.660000   130.000000     0.007692   135.276540     0.000000 
  61.680000   153.000000     0.006536   136.519391     0.000000 
  61.700000   156.000000     0.006410   137.963663     0.000000 
  61.720000   145.000000     0.006897   139.654124     0.000000 
  61.740000   155.000000     0.006452   141.645191     0.000000 
  61.760000   129.000000     0.007752   144.001770     0.000000 
  61.780000   139.000000     0.007194   146.799438     0.000000 
  61.800000   155.000000     0.006452   150.123334     0.000000 
  61.820000   150.000000     0.006667   154.064599     0.000000 
  61.840000   142.000000     0.007042   158.711997     0.000000 
  61.860000   141.000000     0.007092   164.134397     0.000000 
  61.880000   163.000000     0.006135   170.347140     0.000000 
  61.900000   149.000000     0.006711   177.254010     0.000000 
  61.920000   157.000000     0.006369   184.562519     0.000000 
  61.940000   168.000000     0.005952   191.695254     0.000000 
  61.960000   172.000000     0.005814   197.769915     0.000000 
  61.980000   159.000000     0.006289   201.749055     0.000000 
  62.000000   180.000000     0.005556   203.775793     0.000000 
  62.020000   163.000000     0.006135   201.832975     0.000000 
  62.040000   138.000000     0.007246   197.385867     0.000000 
  62.060000   153.000000     0.006536   191.415267     0.000000 
  62.080000   158.000000     0.006329   184.907349     0.000000 
  62.100000   161.000000     0.006211   178.588536     0.000000 
  62.120000   153.000000     0.006536   172.876256     0.000000 
  62.140000   155.000000     0.006452   167.948599     0.000000 
  62.160000   161.000000     0.006211   163.836218     0.000000 
  62.180000   150.000000     0.006667   160.493294     0.000000 
  62.200000   138.000000     0.007246   157.841470     0.000000 
  62.220000   166.000000     0.006024   155.793808     0.000000 
  62.240000   159.000000     0.006289   154.266731     0.000000 
  62.260000   127.000000     0.007874   153.185484     0.000000 
  62.280000   124.000000     0.008065   152.486244     0.000000 
  62.300000   171.000000     0.005848   152.116531     0.000000 
  62.320000   121.000000     0.008264   152.034727     0.000000 
  62.340000   146.000000     0.006849   152.209161     0.000000 
  62.360000   161.000000     0.006211   152.617005     0.000000 
  62.380000   137.000000     0.007299   153.243175     0.000000 
  62.400000   151.000000     0.006623   154.079339     0.000000 
  62.420000   142.000000     0.007042   155.123128     0.000000 
  62.440000   149.000000     0.006711   156.377589     0.000000 
  62.460000   148.000000     0.006757   157.850901     0.000000 
  62.480000   166.000000     0.006024   159.556380     0.000000 
  62.500000   171.000000     0.005848   161.512789     0.000000 
  62.520000   157.000000     0.006369   163.744968     0.000000 
  62.540000   157.000000     0.006369   166.284853     0.000000 
  62.560000   156.000000     0.006410   169.172931     0.000000 
  62.580000   174.000000     0.005747   172.460201     0.000000 
  62.600000   149.000000     0.006711   176.210720     0.000000 
  62.620000   191.000000     0.005236   180.504764     0.000000 
  62.640000   168.000000     0.005952   185.442604     0.000000 
  62.660000   197.000000     0.005076   191.148800     0.000000 
  62.680000   195.000000     0.005128   197.776812     0.000000 
  62.700000   218.000000     0.004587   205.513601     0.000000 
  62.720000   191.000000     0.005236   214.583633     0.000000 
  62.740000   234.000000     0.004274   225.251350     0.000000 
  62.760000   229.000000     0.004367   237.820302     0.000000 
  62.780000   251.000000     0.003984   252.625398     0.000000 
  62.800000   229.000000     0.004367   270.011215     0.000000 
  62.820000   277.000000     0.003610   290.283221     0.000000 
  62.840000   314.000000     0.003185   313.610100     0.000000 
  62.860000   378.000000     0.002646   339.848732     0.000000 
  62.880000   397.000000     0.002519   368.275079     0.000000 
  62.900000   436.000000     0.002294   397.269352     0.000000 
  62.920000   451.000000     0.002217   424.154922     0.000000 
  62.940000   466.000000     0.002146   445.555178     0.000000 
  62.960000   454.000000     0.002203   458.511166     0.000000 
  62.980000   424.000000     0.002358   461.934639     0.000000 
  63.000000   420.000000     0.002381   457.311286     0.000000 
  63.020000   411.000000     0.002433   447.683029     0.000000 
  63.040000   399.000000     0.002506   437.572558     0.000000 
  63.060000   424.000000     0.002358   429.846135     0.000000 
  63.080000   437.000000     0.002288   426.738618     0.000000 
  63.100000   494.000000     0.002024   429.691382     0.000000 
  63.120000   444.000000     0.002252   439.682582     0.000000 
  63.140000   468.000000     0.002137   457.504409     0.000000 
  63.160000   480.000000     0.002083   483.930781     0.000000 
  63.180000   521.000000     0.001919   519.776096     0.000000 
  63.200000   557.000000     0.001795   565.842040     0.000000 
  63.220000   632.000000     0.001582   622.717407     0.000000 
  63.240000   743.000000     0.001346   690.355327     0.000000 
  63.260000   847.000000     0.001181   767.333327     0.000000 
  63.280000  1224.000000     0.000817   849.782658     0.000000 
  63.300000  1412.000000     0.000708   930.293565     0.000000 
  63.320000  1551.000000     0.000645   997.719806     0.000000 
  63.340000  1466.000000     0.000682  1039.236837     0.000000 
  63.360000  1333.000000     0.000750  1045.007100     0.000000 
  63.380000   968.000000     0.001033  1013.025091     0.000000 
  63.400000   854.000000     0.001171   950.194976     0.000000 
  63.420000   798.000000     0.001253   868.639557     0.000000 
  63.440000   809.000000     0.001236   780.489157     0.000000 
  63.460000   817.000000     0.001224   694.636658     0.000000 
  63.480000   917.000000     0.001091   616.140963     0.000000 
  63.500000   899.000000     0.001112   547.093367     0.000000 
  63.520000   825.000000     0.001212   487.762015     0.000000 
  63.540000   730.000000     0.001370   437.478729     0.000000 
  63.560000   561.000000     0.001783   395.188335     0.000000 
  63.580000   477.000000     0.002096   361.169008     0.000000 
  63.600000   422.000000     0.002370   331.495532     0.000000 
  63.620000   343.000000     0.002915   306.602773     0.000000 
  63.640000   326.000000     0.003067   285.649348     0.000000 
  63.660000   301.000000     0.003322   267.927329     0.000000 
  63.680000   258.000000     0.003876   252.851519     0.000000 
  63.700000   278.000000     0.003597   239.944558     0.000000 
  63.720000   246.000000     0.004065   228.820789     0.000000 
  63.740000   213.000000     0.004695   219.170522     0.000000 
  63.760000   246.000000     0.004065   210.745688     0.000000 
  63.780000   222.000000     0.004505   203.347393     0.000000 
  63.800000   204.000000     0.004902   196.815532     0.000000 
  63.820000   191.000000     0.005236   191.020414     0.000000 
  63.840000   221.000000     0.004525   185.856152     0.000000 
  63.860000   198.000000     0.005051   181.235562     0.000000 
  63.880000   182.000000     0.005495   177.086248     0.000000 
  63.900000   178.000000     0.005618   173.347614     0.000000 
  63.920000   168.000000     0.005952   169.968575     0.000000 
  63.940000   167.000000     0.005988   166.905792     0.000000 
  63.960000   178.000000     0.005618   164.122290     0.000000 
  63.980000   170.000000     0.005882   161.586370     0.000000 
  64.000000   194.000000     0.005155   159.270734     0.000000 
  64.020000   172.000000     0.005814   157.151787     0.000000 
  64.040000   166.000000     0.006024   155.209055     0.000000 
  64.060000   164.000000     0.006098   153.424722     0.000000 
  64.080000   171.000000     0.005848   151.783237     0.000000 
  64.100000   166.000000     0.006024   150.270990     0.000000 
  64.120000   145.000000     0.006897   148.876053     0.000000 
  64.140000   134.000000     0.007463   147.587949     0.000000 
  64.160000   140.000000     0.007143   146.397475     0.000000 
  64.180000   181.000000     0.005525   145.296543     0.000000 
  64.200000   144.000000     0.006944   144.278062     0.000000 
  64.220000   152.000000     0.006579   143.335833     0.000000 
  64.240000   149.000000     0.006711   142.464470     0.000000 
  64.260000   153.000000     0.006536   141.659335     0.000000 
  64.280000   157.000000     0.006369   140.916487     0.000000 
  64.300000   161.000000     0.006211   140.232650     0.000000 
  64.320000   156.000000     0.006410   139.605172     0.000000 
  64.340000   139.000000     0.007194   139.031996     0.000000 
  64.360000   163.000000     0.006135   138.511602     0.000000 
  64.380000   149.000000     0.006711   138.042910     0.000000 
  64.400000   142.000000     0.007042   137.624530     0.000000 
  64.420000   152.000000     0.006579   137.256512     0.000000 
  64.440000   126.000000     0.007937   136.936347     0.000000 
  64.460000   135.000000     0.007407   136.659881     0.000000 
  64.480000   139.000000     0.007194   136.419058     0.000000 
  64.500000   156.000000     0.006410   136.200349     0.000000 
  64.520000   159.000000     0.006289   135.984883     0.000000 
  64.540000   164.000000     0.006098   135.752274     0.000000 
  64.560000   147.000000     0.006803   135.488085     0.000000 
  64.580000   144.000000     0.006944   135.190590     0.000000 
  64.600000   148.000000     0.006757   134.871158     0.000000 
  64.620000   121.000000     0.008264   134.547902     0.000000 
  64.640000   135.000000     0.007407   134.237993     0.000000 
  64.660000   129.000000     0.007752   133.953395     0.000000 
  64.680000   128.000000     0.007812   133.700415     0.000000 
  64.700000   136.000000     0.007353   133.481178     0.000000 
  64.720000   127.000000     0.007874   133.295343     0.000000 
  64.740000   138.000000     0.007246   133.141383     0.000000 
  64.760000   155.000000     0.006452   133.017361     0.000000 
  64.780000   128.000000     0.007812   132.921337     0.000000 
  64.800000   131.000000     0.007634   132.851556     0.000000 
  64.820000   150.000000     0.006667   132.806521     0.000000 
  64.840000   117.000000     0.008547   132.785012     0.000000 
  64.860000   126.000000     0.007937   132.786068     0.000000 
  64.880000   143.000000     0.006993   132.808969     0.000000 
  64.900000   142.000000     0.007042   132.853213     0.000000 
  64.920000   150.000000     0.006667   132.918487     0.000000 
  64.940000   146.000000     0.006849   133.004652     0.000000 
  64.960000   125.000000     0.008000   133.155118     0.000000 
  64.980000   147.000000     0.006803   133.283605     0.000000 
  65.000000   136.000000     0.007353   133.433427     0.000000 
  65.020000   139.000000     0.007194   133.604980     0.000000 
  65.040000   129.000000     0.007752   133.798779     0.000000 
  65.060000   142.000000     0.007042   134.015452     0.000000 
  65.080000   129.000000     0.007752   134.255741     0.000000 
  65.100000   135.000000     0.007407   134.520507     0.000000 
  65.120000   141.000000     0.007092   134.810733     0.000000 
  65.140000   134.000000     0.007463   135.127531     0.000000 
  65.160000   142.000000     0.007042   135.472150     0.000000 
  65.180000   109.000000     0.009174   135.845987     0.000000 
  65.200000   143.000000     0.006993   136.250599     0.000000 
  65.220000   140.000000     0.007143   136.687715     0.000000 
  65.240000   147.000000     0.006803   137.159255     0.000000 
  65.260000   146.000000     0.006849   137.667346     0.000000 
  65.280000   125.000000     0.008000   138.214348     0.000000 
  65.300000   162.000000     0.006173   138.802874     0.000000 
  65.320000   156.000000     0.006410   139.435821     0.000000 
  65.340000   150.000000     0.006667   140.116403     0.000000 
  65.360000   158.000000     0.006329   140.848186     0.000000 
  65.380000   159.000000     0.006289   141.635137     0.000000 
  65.400000   159.000000     0.006289   142.481666     0.000000 
  65.420000   181.000000     0.005525   143.392692     0.000000 
  65.440000   144.000000     0.006944   144.373702     0.000000 
  65.460000   130.000000     0.007692   145.430837     0.000000 
  65.480000   158.000000     0.006329   146.570973     0.000000 
  65.500000   149.000000     0.006711   147.801834     0.000000 
  65.520000   156.000000     0.006410   149.132112     0.000000 
  65.540000   156.000000     0.006410   150.571612     0.000000 
  65.560000   167.000000     0.005988   152.131423     0.000000 
  65.580000   155.000000     0.006452   153.824120     0.000000 
  65.600000   159.000000     0.006289   155.664004     0.000000 
  65.620000   185.000000     0.005405   157.667383     0.000000 
  65.640000   152.000000     0.006579   159.852919     0.000000 
  65.660000   149.000000     0.006711   162.242032     0.000000 
  65.680000   178.000000     0.005618   164.859394     0.000000 
  65.700000   202.000000     0.004950   167.733525     0.000000 
  65.720000   175.000000     0.005714   170.897520     0.000000 
  65.740000   196.000000     0.005102   174.389931     0.000000 
  65.760000   190.000000     0.005263   178.255859     0.000000 
  65.780000   191.000000     0.005236   182.548296     0.000000 
  65.800000   217.000000     0.004608   187.329790     0.000000 
  65.820000   225.000000     0.004444   192.674529     0.000000 
  65.840000   242.000000     0.004132   198.670943     0.000000 
  65.860000   234.000000     0.004274   205.424987     0.000000 
  65.880000   230.000000     0.004348   213.064272     0.000000 
  65.900000   236.000000     0.004237   221.743289     0.000000 
  65.920000   249.000000     0.004016   231.649985     0.000000 
  65.940000   277.000000     0.003610   243.014025     0.000000 
  65.960000   283.000000     0.003534   256.117098     0.000000 
  65.980000   326.000000     0.003067   271.305607     0.000000 
  66.000000   348.000000     0.002874   289.006026     0.000000 
  66.020000   347.000000     0.002882   309.742910     0.000000 
  66.040000   371.000000     0.002695   334.158856     0.000000 
  66.060000   403.000000     0.002481   363.034193     0.000000 
  66.080000   432.000000     0.002315   397.300995     0.000000 
  66.100000   461.000000     0.002169   438.039678     0.000000 
  66.120000   551.000000     0.001815   486.434704     0.000000 
  66.140000   590.000000     0.001695   543.685302     0.000000 
  66.160000   634.000000     0.001577   610.561458     0.000000 
  66.180000   784.000000     0.001276   687.025848     0.000000 
  66.200000   906.000000     0.001104   771.456474     0.000000 
  66.220000  1093.000000     0.000915   859.092739     0.000000 
  66.240000  1162.000000     0.000861   941.344545     0.000000 
  66.260000  1185.000000     0.000844  1006.113699     0.000000 
  66.280000  1075.000000     0.000930  1040.789954     0.000000 
  66.300000   930.000000     0.001075  1037.434071     0.000000 
  66.320000   873.000000     0.001145   996.892706     0.000000 
  66.340000   757.000000     0.001321   928.331664     0.000000 
  66.360000   695.000000     0.001439   844.615277     0.000000 
  66.380000   703.000000     0.001422   757.349780     0.000000 
  66.400000   729.000000     0.001372   674.399112     0.000000 
  66.420000   741.000000     0.001350   599.842692     0.000000 
  66.440000   759.000000     0.001318   535.046120     0.000000 
  66.460000   703.000000     0.001422   479.809864     0.000000 
  66.480000   591.000000     0.001692   433.199148     0.000000 
  66.500000   553.000000     0.001808   394.035229     0.000000 
  66.520000   471.000000     0.002123   361.146674     0.000000 
  66.540000   409.000000     0.002445   333.478644     0.000000 
  66.560000   364.000000     0.002747   310.127396     0.000000 
  66.580000   320.000000     0.003125   290.339282     0.000000 
  66.600000   292.000000     0.003425   273.495103     0.000000 
  66.620000   285.000000     0.003509   259.090098     0.000000 
  66.640000   283.000000     0.003534   246.714232     0.000000 
  66.660000   258.000000     0.003876   236.034645     0.000000 
  66.680000   266.000000     0.003759   226.780785     0.000000 
  66.700000   232.000000     0.004310   218.732173     0.000000 
  66.720000   213.000000     0.004695   211.708496     0.000000 
  66.740000   232.000000     0.004310   205.561677     0.000000 
  66.760000   225.000000     0.004444   200.169574     0.000000 
  66.780000   194.000000     0.005155   195.430972     0.000000 
  66.800000   208.000000     0.004808   191.261633     0.000000 
  66.820000   199.000000     0.005025   187.591151     0.000000 
  66.840000   171.000000     0.005848   184.360469     0.000000 
  66.860000   184.000000     0.005435   181.519884     0.000000 
  66.880000   200.000000     0.005000   179.027461     0.000000 
  66.900000   196.000000     0.005102   176.847751     0.000000 
  66.920000   173.000000     0.005780   174.950762     0.000000 
  66.940000   170.000000     0.005882   173.311120     0.000000 
  66.960000   162.000000     0.006173   171.907389     0.000000 
  66.980000   180.000000     0.005556   170.721518     0.000000 
  67.000000   178.000000     0.005618   169.738391     0.000000 
  67.020000   176.000000     0.005682   168.945455     0.000000 
  67.040000   177.000000     0.005650   168.332430     0.000000 
  67.060000   159.000000     0.006289   167.891062     0.000000 
  67.080000   176.000000     0.005682   167.614936     0.000000 
  67.100000   154.000000     0.006494   167.499326     0.000000 
  67.120000   163.000000     0.006135   167.541080     0.000000 
  67.140000   162.000000     0.006173   167.738547     0.000000 
  67.160000   183.000000     0.005464   168.091519     0.000000 
  67.180000   180.000000     0.005556   168.363017     0.000000 
  67.200000   171.000000     0.005848   169.034320     0.000000 
  67.220000   164.000000     0.006098   169.869063     0.000000 
  67.240000   172.000000     0.005814   170.872869     0.000000 
  67.260000   175.000000     0.005714   172.052964     0.000000 
  67.280000   190.000000     0.005263   173.418293     0.000000 
  67.300000   162.000000     0.006173   174.979674     0.000000 
  67.320000   175.000000     0.005714   176.749989     0.000000 
  67.340000   173.000000     0.005780   178.744418     0.000000 
  67.360000   181.000000     0.005525   180.980722     0.000000 
  67.380000   176.000000     0.005682   183.479597     0.000000 
  67.400000   183.000000     0.005464   186.265092     0.000000 
  67.420000   202.000000     0.004950   189.365117     0.000000 
  67.440000   203.000000     0.004926   192.812056     0.000000 
  67.460000   186.000000     0.005376   196.643520     0.000000 
  67.480000   191.000000     0.005236   200.903248     0.000000 
  67.500000   201.000000     0.004975   205.642221     0.000000 
  67.520000   204.000000     0.004902   210.920026     0.000000 
  67.540000   215.000000     0.004651   216.806547     0.000000 
  67.560000   238.000000     0.004202   223.384078     0.000000 
  67.580000   228.000000     0.004386   229.881730     0.000000 
  67.600000   223.000000     0.004484   238.159843     0.000000 
  67.620000   274.000000     0.003650   247.480253     0.000000 
  67.640000   266.000000     0.003759   258.009224     0.000000 
  67.660000   245.000000     0.004082   269.947672     0.000000 
  67.680000   249.000000     0.004016   283.539544     0.000000 
  67.700000   284.000000     0.003521   299.082186     0.000000 
  67.720000   298.000000     0.003356   316.938931     0.000000 
  67.740000   300.000000     0.003333   337.554107     0.000000 
  67.760000   331.000000     0.003021   361.470489     0.000000 
  67.780000   359.000000     0.002786   389.348918     0.000000 
  67.800000   349.000000     0.002865   421.989341     0.000000 
  67.820000   415.000000     0.002410   460.351446     0.000000 
  67.840000   453.000000     0.002208   505.571094     0.000000 
  67.860000   470.000000     0.002128   558.964697     0.000000 
  67.880000   519.000000     0.001927   622.005984     0.000000 
  67.900000   615.000000     0.001626   696.245725     0.000000 
  67.920000   677.000000     0.001477   783.122203     0.000000 
  67.940000   872.000000     0.001147   883.578942     0.000000 
  67.960000  1125.000000     0.000889   997.378695     0.000000 
  67.980000  1346.000000     0.000743  1122.023965     0.000000 
  68.000000  1731.000000     0.000578  1251.365093     0.000000 
  68.020000  2069.000000     0.000483  1374.428160     0.000000 
  68.040000  2162.000000     0.000463  1475.668915     0.000000 
  68.060000  2038.000000     0.000491  1538.075554     0.000000 
  68.080000  1641.000000     0.000609  1549.086273     0.000000 
  68.100000  1347.000000     0.000742  1506.291109     0.000000 
  68.120000  1128.000000     0.000887  1418.662991     0.000000 
  68.140000  1056.000000     0.000947  1302.160008     0.000000 
  68.160000  1010.000000     0.000990  1173.509778     0.000000 
  68.180000  1051.000000     0.000951  1045.709094     0.000000 
  68.200000  1207.000000     0.000829   926.773605     0.000000 
  68.220000  1352.000000     0.000740   820.510920     0.000000 
  68.240000  1283.000000     0.000779   727.923850     0.000000 
  68.260000  1103.000000     0.000907   648.444761     0.000000 
  68.280000   910.000000     0.001099   580.775533     0.000000 
  68.300000   784.000000     0.001276   523.379246     0.000000 
  68.320000   599.000000     0.001669   474.736086     0.000000 
  68.340000   523.000000     0.001912   433.460114     0.000000 
  68.360000   470.000000     0.002128   398.341077     0.000000 
  68.380000   381.000000     0.002625   368.348763     0.000000 
  68.400000   393.000000     0.002545   342.620194     0.000000 
  68.420000   344.000000     0.002907   320.440064     0.000000 
  68.440000   278.000000     0.003597   301.474843     0.000000 
  68.460000   274.000000     0.003650   284.733256     0.000000 
  68.480000   267.000000     0.003745   270.073801     0.000000 
  68.500000   252.000000     0.003968   257.173365     0.000000 
  68.520000   257.000000     0.003891   245.767029     0.000000 
  68.540000   254.000000     0.003937   235.636831     0.000000 
  68.560000   237.000000     0.004219   226.602603     0.000000 
  68.580000   210.000000     0.004762   218.514608     0.000000 
  68.600000   209.000000     0.004785   211.247678     0.000000 
  68.620000   211.000000     0.004739   204.696567     0.000000 
  68.640000   204.000000     0.004902   198.772281     0.000000 
  68.660000   218.000000     0.004587   193.399164     0.000000 
  68.680000   177.000000     0.005650   188.512581     0.000000 
  68.700000   180.000000     0.005556   184.057062     0.000000 
  68.720000   191.000000     0.005236   179.984804     0.000000 
  68.740000   164.000000     0.006098   176.254459     0.000000 
  68.760000   193.000000     0.005181   172.830129     0.000000 
  68.780000   182.000000     0.005495   169.680554     0.000000 
  68.800000   192.000000     0.005208   166.778432     0.000000 
  68.820000   153.000000     0.006536   164.098514     0.000000 
  68.840000   155.000000     0.006452   161.622489     0.000000 
  68.860000   165.000000     0.006061   159.330539     0.000000 
  68.880000   162.000000     0.006173   157.826364     0.000000 
  68.900000   161.000000     0.006211   155.860242     0.000000 
  68.920000   155.000000     0.006452   154.034902     0.000000 
  68.940000   163.000000     0.006135   152.339122     0.000000 
  68.960000   143.000000     0.006993   150.762985     0.000000 
  68.980000   163.000000     0.006135   149.297737     0.000000 
  69.000000   144.000000     0.006944   147.935666     0.000000 
  69.020000   175.000000     0.005714   146.670005     0.000000 
  69.040000   139.000000     0.007194   145.494852     0.000000 
  69.060000   155.000000     0.006452   144.405101     0.000000 
  69.080000   137.000000     0.007299   143.396398     0.000000 
  69.100000   175.000000     0.005714   142.465103     0.000000 
  69.120000   143.000000     0.006993   141.608272     0.000000 
  69.140000   137.000000     0.007299   140.823651     0.000000 
  69.160000   148.000000     0.006757   140.109694     0.000000 
  69.180000   152.000000     0.006579   139.465596     0.000000 
  69.200000   166.000000     0.006024   140.428812     0.000000 
  69.220000   135.000000     0.007407   139.936617     0.000000 
  69.240000   125.000000     0.008000   139.517161     0.000000 
  69.260000   165.000000     0.006061   139.312486     0.000000 
  69.280000   150.000000     0.006667   139.050071     0.000000 
  69.300000   144.000000     0.006944   138.873961     0.000000 
  69.320000   146.000000     0.006849   138.792170     0.000000 
  69.340000   132.000000     0.007576   138.815019     0.000000 
  69.360000   161.000000     0.006211   138.955544     0.000000 
  69.380000   119.000000     0.008403   139.229925     0.000000 
  69.400000   137.000000     0.007299   139.657924     0.000000 
  69.420000   131.000000     0.007634   140.263279     0.000000 
  69.440000   135.000000     0.007407   141.073983     0.000000 
  69.460000   108.000000     0.009259   142.122330     0.000000 
  69.480000   145.000000     0.006897   143.444465     0.000000 
  69.500000   133.000000     0.007519   145.079024     0.000000 
  69.520000   138.000000     0.007246   147.064044     0.000000 
  69.540000   149.000000     0.006711   149.430811     0.000000 
  69.560000   142.000000     0.007042   152.192676     0.000000 
  69.580000   145.000000     0.006897   155.326471     0.000000 
  69.600000   145.000000     0.006897   158.745224     0.000000 
  69.620000   144.000000     0.006944   162.265494     0.000000 
  69.640000   146.000000     0.006849   165.583056     0.000000 
  69.660000   149.000000     0.006711   168.284312     0.000000 
  69.680000   147.000000     0.006803   169.922968     0.000000 
  69.700000   161.000000     0.006211   170.159449     0.000000 
  69.720000   135.000000     0.007407   168.898658     0.000000 
  69.740000   142.000000     0.007042   166.332764     0.000000 
  69.760000   124.000000     0.008065   162.856067     0.000000 
  69.780000   150.000000     0.006667   158.915813     0.000000 
  69.800000   144.000000     0.006944   154.890957     0.000000 
  69.820000   132.000000     0.007576   151.040840     0.000000 
  69.840000   147.000000     0.006803   147.510191     0.000000 
  69.860000   126.000000     0.007937   144.358843     0.000000 
  69.880000   147.000000     0.006803   141.593385     0.000000 
  69.900000   140.000000     0.007143   139.191404     0.000000 
  69.920000   148.000000     0.006757   137.117194     0.000000 
  69.940000   142.000000     0.007042   135.330891     0.000000 
  69.960000   119.000000     0.008403   133.793340     0.000000 
  69.980000   106.000000     0.009434   132.468448     0.000000 
  70.000000   150.000000     0.006667   131.324152     0.000000 
  70.020000   108.000000     0.009259   130.332640     0.000000 
  70.040000   130.000000     0.007692   129.470200     0.000000 
  70.060000   153.000000     0.006536   128.716881     0.000000 
  70.080000   125.000000     0.008000   128.056064     0.000000 
  70.100000   132.000000     0.007576   127.474020     0.000000 
  70.120000   137.000000     0.007299   126.959467     0.000000 
  70.140000   102.000000     0.009804   126.503668     0.000000 
  70.160000   116.000000     0.008621   126.098090     0.000000 
  70.180000   122.000000     0.008197   125.737062     0.000000 
  70.200000   147.000000     0.006803   125.415544     0.000000 
  70.220000   124.000000     0.008065   125.129411     0.000000 
  70.240000   126.000000     0.007937   124.875285     0.000000 
  70.260000   116.000000     0.008621   124.650404     0.000000 
  70.280000   119.000000     0.008403   124.452518     0.000000 
  70.300000   107.000000     0.009346   124.279814     0.000000 
  70.320000   130.000000     0.007692   124.130850     0.000000 
  70.340000   127.000000     0.007874   124.004517     0.000000 
  70.360000   147.000000     0.006803   123.900003     0.000000 
  70.380000   119.000000     0.008403   123.816770     0.000000 
  70.400000   109.000000     0.009174   123.754542     0.000000 
  70.420000   107.000000     0.009346   123.713300     0.000000 
  70.440000   113.000000     0.008850   123.693280     0.000000 
  70.460000   129.000000     0.007752   123.694987     0.000000 
  70.480000   114.000000     0.008772   123.719212     0.000000 
  70.500000   121.000000     0.008264   123.767060     0.000000 
  70.520000   132.000000     0.007576   123.839991     0.000000 
  70.540000   131.000000     0.007634   123.939876     0.000000 
  70.560000   123.000000     0.008130   124.069073     0.000000 
  70.580000   120.000000     0.008333   124.230522     0.000000 
  70.600000   129.000000     0.007752   123.515900     0.000000 
  70.620000   127.000000     0.007874   123.762046     0.000000 
  70.640000   130.000000     0.007692   124.054049     0.000000 
  70.660000   127.000000     0.007874   124.398753     0.000000 
  70.680000   119.000000     0.008403   124.804555     0.000000 
  70.700000   143.000000     0.006993   125.281689     0.000000 
  70.720000   129.000000     0.007752   125.842545     0.000000 
  70.740000   118.000000     0.008475   126.501988     0.000000 
  70.760000   142.000000     0.007042   127.277652     0.000000 
  70.780000   117.000000     0.008547   128.190181     0.000000 
  70.800000   109.000000     0.009174   129.263361     0.000000 
  70.820000   126.000000     0.007937   130.524059     0.000000 
  70.840000   140.000000     0.007143   132.001826     0.000000 
  70.860000   148.000000     0.006757   133.727890     0.000000 
  70.880000   125.000000     0.008000   135.733092     0.000000 
  70.900000   126.000000     0.007937   138.043956     0.000000 
  70.920000   126.000000     0.007937   140.675717     0.000000 
  70.940000   144.000000     0.006944   143.620765     0.000000 
  70.960000   157.000000     0.006369   146.831207     0.000000 
  70.980000   174.000000     0.005747   150.196196     0.000000 
  71.000000   167.000000     0.005988   153.519736     0.000000 
  71.020000   175.000000     0.005714   156.513233     0.000000 
  71.040000   180.000000     0.005556   158.823950     0.000000 
  71.060000   154.000000     0.006494   160.113159     0.000000 
  71.080000   154.000000     0.006494   160.165919     0.000000 
  71.100000   151.000000     0.006623   158.975678     0.000000 
  71.120000   174.000000     0.005747   156.747011     0.000000 
  71.140000   158.000000     0.006329   153.814516     0.000000 
  71.160000   139.000000     0.007194   150.532673     0.000000 
  71.180000   145.000000     0.006897   147.194964     0.000000 
  71.200000   143.000000     0.006993   144.002722     0.000000 
  71.220000   141.000000     0.007092   141.071119     0.000000 
  71.240000   152.000000     0.006579   138.450981     0.000000 
  71.260000   142.000000     0.007042   136.151656     0.000000 
  71.280000   145.000000     0.006897   134.158801     0.000000 
  71.300000   147.000000     0.006803   132.446255     0.000000 
  71.320000   122.000000     0.008197   130.983228     0.000000 
  71.340000   154.000000     0.006494   129.738366     0.000000 
  71.360000   134.000000     0.007463   128.681905     0.000000 
  71.380000   133.000000     0.007519   127.786717     0.000000 
  71.400000   136.000000     0.007353   127.028735     0.000000 
  71.420000   118.000000     0.008475   126.387025     0.000000 
  71.440000   145.000000     0.006897   125.843666     0.000000 
  71.460000   117.000000     0.008547   125.383508     0.000000 
  71.480000   119.000000     0.008403   124.993879     0.000000 
  71.500000   125.000000     0.008000   124.664264     0.000000 
  71.520000   157.000000     0.006369   124.385989     0.000000 
  71.540000   115.000000     0.008696   124.151924     0.000000 
  71.560000   123.000000     0.008130   123.956208     0.000000 
  71.580000   126.000000     0.007937   123.794022     0.000000 
  71.600000   113.000000     0.008850   123.661390     0.000000 
  71.620000   125.000000     0.008000   123.555013     0.000000 
  71.640000   137.000000     0.007299   123.472145     0.000000 
  71.660000   133.000000     0.007519   123.410481     0.000000 
  71.680000   117.000000     0.008547   123.368080     0.000000 
  71.700000   139.000000     0.007194   123.343300     0.000000 
  71.720000   127.000000     0.007874   123.334744     0.000000 
  71.740000   107.000000     0.009346   123.341222     0.000000 
  71.760000   129.000000     0.007752   123.361717     0.000000 
  71.780000   109.000000     0.009174   123.395362     0.000000 
  71.800000   129.000000     0.007752   123.441415     0.000000 
  71.820000   123.000000     0.008130   123.499245     0.000000 
  71.840000   108.000000     0.009259   123.568318     0.000000 
  71.860000   119.000000     0.008403   123.648181     0.000000 
  71.880000   128.000000     0.007812   123.738456     0.000000 
  71.900000   140.000000     0.007143   123.838831     0.000000 
  71.920000   154.000000     0.006494   123.949052     0.000000 
  71.940000   109.000000     0.009174   124.068918     0.000000 
  71.960000   120.000000     0.008333   124.198273     0.000000 
  71.980000   124.000000     0.008065   124.337009     0.000000 
  72.000000   136.000000     0.007353   124.485053     0.000000 
  72.020000   156.000000     0.006410   124.642372     0.000000 
  72.040000   126.000000     0.007937   124.808967     0.000000 
  72.060000   133.000000     0.007519   124.984871     0.000000 
  72.080000   134.000000     0.007463   125.170148     0.000000 
  72.100000   132.000000     0.007576   125.364891     0.000000 
  72.120000   132.000000     0.007576   125.569223     0.000000 
  72.140000   125.000000     0.008000   125.783295     0.000000 
  72.160000   130.000000     0.007692   126.007285     0.000000 
  72.180000   126.000000     0.007937   126.241399     0.000000 
  72.200000   148.000000     0.006757   126.485871     0.000000 
  72.220000   144.000000     0.006944   126.740962     0.000000 
  72.240000   115.000000     0.008696   127.007174     0.000000 
  72.260000   125.000000     0.008000   127.284403     0.000000 
  72.280000   143.000000     0.006993   127.573210     0.000000 
  72.300000   146.000000     0.006849   127.873976     0.000000 
  72.320000   115.000000     0.008696   128.187114     0.000000 
  72.340000   145.000000     0.006897   128.513072     0.000000 
  72.360000   137.000000     0.007299   128.852333     0.000000 
  72.380000   121.000000     0.008264   129.205422     0.000000 
  72.400000   135.000000     0.007407   129.572902     0.000000 
  72.420000   138.000000     0.007246   129.955379     0.000000 
  72.440000   120.000000     0.008333   130.353508     0.000000 
  72.460000   149.000000     0.006711   130.767994     0.000000 
  72.480000   111.000000     0.009009   131.199595     0.000000 
  72.500000   141.000000     0.007092   131.649130     0.000000 
  72.520000   135.000000     0.007407   132.117479     0.000000 
  72.540000   124.000000     0.008065   132.605595     0.000000 
  72.560000   142.000000     0.007042   133.114503     0.000000 
  72.580000   133.000000     0.007519   133.645314     0.000000 
  72.600000   124.000000     0.008065   132.795803     0.000000 
  72.620000   125.000000     0.008000   133.386431     0.000000 
  72.640000   162.000000     0.006173   134.002713     0.000000 
  72.660000   138.000000     0.007246   134.646187     0.000000 
  72.680000   167.000000     0.005988   135.318525     0.000000 
  72.700000   149.000000     0.006711   136.021550     0.000000 
  72.720000   143.000000     0.006993   136.757258     0.000000 
  72.740000   142.000000     0.007042   137.527832     0.000000 
  72.760000   147.000000     0.006803   138.335674     0.000000 
  72.780000   148.000000     0.006757   139.183433     0.000000 
  72.800000   141.000000     0.007092   140.074037     0.000000 
  72.820000   155.000000     0.006452   141.010742     0.000000 
  72.840000   146.000000     0.006849   141.997183     0.000000 
  72.860000   167.000000     0.005988   143.037438     0.000000 
  72.880000   156.000000     0.006410   144.136109     0.000000 
  72.900000   140.000000     0.007143   145.298412     0.000000 
  72.920000   156.000000     0.006410   146.533840     0.000000 
  72.940000   155.000000     0.006452   147.842136     0.000000 
  72.960000   159.000000     0.006289   149.234649     0.000000 
  72.980000   168.000000     0.005952   150.720395     0.000000 
  73.000000   143.000000     0.006993   152.309766     0.000000 
  73.020000   160.000000     0.006250   154.014733     0.000000 
  73.040000   188.000000     0.005319   155.849044     0.000000 
  73.060000   159.000000     0.006289   157.828425     0.000000 
  73.080000   175.000000     0.005714   159.970756     0.000000 
  73.100000   169.000000     0.005917   162.296215     0.000000 
  73.120000   165.000000     0.006061   164.827375     0.000000 
  73.140000   185.000000     0.005405   167.589202     0.000000 
  73.160000   169.000000     0.005917   170.610147     0.000000 
  73.180000   189.000000     0.005291   173.916836     0.000000 
  73.200000   173.000000     0.005780   177.540572     0.000000 
  73.220000   183.000000     0.005464   181.510850     0.000000 
  73.240000   178.000000     0.005618   185.853764     0.000000 
  73.260000   181.000000     0.005525   190.587466     0.000000 
  73.280000   204.000000     0.004902   195.715512     0.000000 
  73.300000   200.000000     0.005000   201.218536     0.000000 
  73.320000   165.000000     0.006061   207.046495     0.000000 
  73.340000   214.000000     0.004673   213.116703     0.000000 
  73.360000   195.000000     0.005128   219.325250     0.000000 
  73.380000   264.000000     0.003788   225.577604     0.000000 
  73.400000   217.000000     0.004608   231.834384     0.000000 
  73.420000   210.000000     0.004762   238.154168     0.000000 
  73.440000   243.000000     0.004115   244.709826     0.000000 
  73.460000   222.000000     0.004505   251.768362     0.000000 
  73.480000   224.000000     0.004464   259.646859     0.000000 
  73.500000   240.000000     0.004167   268.667804     0.000000 
  73.520000   281.000000     0.003559   279.129303     0.000000 
  73.540000   260.000000     0.003846   291.291035     0.000000 
  73.560000   286.000000     0.003497   305.367528     0.000000 
  73.580000   294.000000     0.003401   321.518274     0.000000 
  73.600000   319.000000     0.003135   339.825498     0.000000 
  73.620000   365.000000     0.002740   360.252166     0.000000 
  73.640000   409.000000     0.002445   382.575371     0.000000 
  73.660000   383.000000     0.002611   406.296937     0.000000 
  73.680000   436.000000     0.002294   430.548846     0.000000 
  73.700000   544.000000     0.001838   454.038201     0.000000 
  73.720000   588.000000     0.001701   475.105139     0.000000 
  73.740000   564.000000     0.001773   491.965411     0.000000 
  73.760000   509.000000     0.001965   503.135860     0.000000 
  73.780000   462.000000     0.002165   507.901901     0.000000 
  73.800000   441.000000     0.002268   506.588723     0.000000 
  73.820000   404.000000     0.002475   500.472890     0.000000 
  73.840000   425.000000     0.002353   491.391324     0.000000 
  73.860000   410.000000     0.002439   481.272457     0.000000 
  73.880000   436.000000     0.002294   471.795836     0.000000 
  73.900000   485.000000     0.002062   464.250075     0.000000 
  73.920000   494.000000     0.002024   459.544776     0.000000 
  73.940000   469.000000     0.002132   458.297238     0.000000 
  73.960000   467.000000     0.002141   460.933222     0.000000 
  73.980000   449.000000     0.002227   467.771524     0.000000 
  74.000000   457.000000     0.002188   479.083796     0.000000 
  74.020000   457.000000     0.002188   495.131263     0.000000 
  74.040000   484.000000     0.002066   516.182453     0.000000 
  74.060000   445.000000     0.002247   542.514778     0.000000 
  74.080000   529.000000     0.001890   574.399808     0.000000 
  74.100000   488.000000     0.002049   612.068324     0.000000 
  74.120000   594.000000     0.001684   655.647313     0.000000 
  74.140000   605.000000     0.001653   705.057909     0.000000 
  74.160000   691.000000     0.001447   759.864278     0.000000 
  74.180000   765.000000     0.001307   819.074570     0.000000 
  74.200000   835.000000     0.001198   880.925767     0.000000 
  74.220000   894.000000     0.001119   942.739943     0.000000 
  74.240000  1022.000000     0.000978  1001.004186     0.000000 
  74.260000   991.000000     0.001009  1051.840129     0.000000 
  74.280000  1037.000000     0.000964  1091.901282     0.000000 
  74.300000   901.000000     0.001110  1119.450798     0.000000 
  74.320000   841.000000     0.001189  1135.115506     0.000000 
  74.340000   837.000000     0.001195  1141.881682     0.000000 
  74.360000   831.000000     0.001203  1144.333758     0.000000 
  74.380000   870.000000     0.001149  1147.570368     0.000000 
  74.400000   948.000000     0.001055  1156.296589     0.000000 
  74.420000   997.000000     0.001003  1174.330645     0.000000 
  74.440000  1150.000000     0.000870  1204.475546     0.000000 
  74.460000  1122.000000     0.000891  1248.531952     0.000000 
  74.480000  1149.000000     0.000870  1307.537440     0.000000 
  74.500000  1264.000000     0.000791  1381.472546     0.000000 
  74.520000  1404.000000     0.000712  1469.238009     0.000000 
  74.540000  1597.000000     0.000626  1568.249949     0.000000 
  74.560000  1801.000000     0.000555  1673.977562     0.000000 
  74.580000  2025.000000     0.000494  1779.564365     0.000000 
  74.600000  2175.000000     0.000460  1875.864700     0.000000 
  74.620000  2214.000000     0.000452  1952.295078     0.000000 
  74.640000  2076.000000     0.000482  1998.690527     0.000000 
  74.660000  1949.000000     0.000513  2007.772131     0.000000 
  74.680000  1717.000000     0.000582  1977.183691     0.000000 
  74.700000  1565.000000     0.000639  1910.007405     0.000000 
  74.720000  1479.000000     0.000676  1813.503022     0.000000 
  74.740000  1356.000000     0.000737  1696.869967     0.000000 
  74.760000  1318.000000     0.000759  1569.171382     0.000000 
  74.780000  1320.000000     0.000758  1438.072142     0.000000 
  74.800000  1400.000000     0.000714  1309.385861     0.000000 
  74.820000  1326.000000     0.000754  1187.120564     0.000000 
  74.840000  1340.000000     0.000746  1073.744333     0.000000 
  74.860000  1278.000000     0.000782   970.517311     0.000000 
  74.880000  1164.000000     0.000859   877.817952     0.000000 
  74.900000   977.000000     0.001024   795.427179     0.000000 
  74.920000   874.000000     0.001144   722.753967     0.000000 
  74.940000   792.000000     0.001263   659.086473     0.000000 
  74.960000   725.000000     0.001379   603.365300     0.000000 
  74.980000   600.000000     0.001667   554.769376     0.000000 
  75.000000   533.000000     0.001876   512.423013     0.000000 
  75.020000   508.000000     0.001969   475.508862     0.000000 
  75.040000   478.000000     0.002092   443.283196     0.000000 
  75.060000   407.000000     0.002457   415.082613     0.000000 
  75.080000   376.000000     0.002660   390.324911     0.000000 
  75.100000   414.000000     0.002415   368.506047     0.000000 
  75.120000   353.000000     0.002833   349.194571     0.000000 
  75.140000   345.000000     0.002899   332.024554     0.000000 
  75.160000   308.000000     0.003247   316.687829     0.000000 
  75.180000   309.000000     0.003236   302.926142     0.000000 
  75.200000   290.000000     0.003448   290.523653     0.000000 
  75.220000   261.000000     0.003831   279.300065     0.000000 
  75.240000   281.000000     0.003559   269.104549     0.000000 
  75.260000   264.000000     0.003788   259.810517     0.000000 
  75.280000   249.000000     0.004016   251.311228     0.000000 
  75.300000   235.000000     0.004255   243.516160     0.000000 
  75.320000   225.000000     0.004444   237.357925     0.000000 
  75.340000   255.000000     0.003922   230.756592     0.000000 
  75.360000   212.000000     0.004717   224.658582     0.000000 
  75.380000   210.000000     0.004762   219.014025     0.000000 
  75.400000   212.000000     0.004717   213.779322     0.000000 
  75.420000   212.000000     0.004717   208.916173     0.000000 
  75.440000   210.000000     0.004762   204.390798     0.000000 
  75.460000   191.000000     0.005236   200.173270     0.000000 
  75.480000   231.000000     0.004329   196.237006     0.000000 
  75.500000   217.000000     0.004608   192.558313     0.000000 
  75.520000   213.000000     0.004695   189.116014     0.000000 
  75.540000   216.000000     0.004630   185.891115     0.000000 
  75.560000   218.000000     0.004587   182.866522     0.000000 
  75.580000   206.000000     0.004854   180.026764     0.000000 
  75.600000   196.000000     0.005102   177.357751     0.000000 
  75.620000   201.000000     0.004975   174.846509     0.000000 
  75.640000   181.000000     0.005525   172.480916     0.000000 
  75.660000   189.000000     0.005291   170.249437     0.000000 
  75.680000   201.000000     0.004975   168.140878     0.000000 
  75.700000   179.000000     0.005587   166.144229     0.000000 
  75.720000   201.000000     0.004975   164.248708     0.000000 
  75.740000   181.000000     0.005525   162.444062     0.000000 
  75.760000   175.000000     0.005714   160.721132     0.000000 
  75.780000   176.000000     0.005682   159.072471     0.000000 
  75.800000   221.000000     0.004525   157.492699     0.000000 
  75.820000   186.000000     0.005376   155.978381     0.000000 
  75.840000   174.000000     0.005747   154.527460     0.000000 
  75.860000   186.000000     0.005376   153.138522     0.000000 
  75.880000   195.000000     0.005128   151.810200     0.000000 
  75.900000   175.000000     0.005714   150.540900     0.000000 
  75.920000   155.000000     0.006452   149.328454     0.000000 
  75.940000   144.000000     0.006944   148.170577     0.000000 
  75.960000   152.000000     0.006579   147.064719     0.000000 
  75.980000   156.000000     0.006410   146.008248     0.000000 
  76.000000   152.000000     0.006579   144.998535     0.000000 
  76.020000   179.000000     0.005587   143.993798     0.000000 
  76.040000   145.000000     0.006897   143.070332     0.000000 
  76.060000   177.000000     0.005650   142.186260     0.000000 
  76.080000   166.000000     0.006024   141.339376     0.000000 
  76.100000   164.000000     0.006098   140.527604     0.000000 
  76.120000   150.000000     0.006667   139.749004     0.000000 
  76.140000   135.000000     0.007407   139.001760     0.000000 
  76.160000   159.000000     0.006289   138.284177     0.000000 
  76.180000   124.000000     0.008065   137.594678     0.000000 
  76.200000   148.000000     0.006757   136.931793     0.000000 
  76.220000   127.000000     0.007874   136.294152     0.000000 
  76.240000   158.000000     0.006329   135.680481     0.000000 
  76.260000   145.000000     0.006897   135.089591     0.000000 
  76.280000   150.000000     0.006667   134.520373     0.000000 
  76.300000   152.000000     0.006579   133.971790     0.000000 
  76.320000   110.000000     0.009091   133.442873     0.000000 
  76.340000   140.000000     0.007143   132.932714     0.000000 
  76.360000   143.000000     0.006993   132.440461     0.000000 
  76.380000   146.000000     0.006849   131.965314     0.000000 
  76.400000   138.000000     0.007246   131.506518     0.000000 
  76.420000   135.000000     0.007407   131.063365     0.000000 
  76.440000   139.000000     0.007194   130.635185     0.000000 
  76.460000   129.000000     0.007752   130.221346     0.000000 
  76.480000   131.000000     0.007634   129.821251     0.000000 
  76.500000   127.000000     0.007874   129.434333     0.000000 
  76.520000   116.000000     0.008621   129.060059     0.000000 
  76.540000   140.000000     0.007143   128.697922     0.000000 
  76.560000   147.000000     0.006803   128.347440     0.000000 
  76.580000   131.000000     0.007634   128.008158     0.000000 
  76.600000   138.000000     0.007246   127.679643     0.000000 
  76.620000   114.000000     0.008772   127.361483     0.000000 
  76.640000   109.000000     0.009174   127.053288     0.000000 
  76.660000   134.000000     0.007463   126.754686     0.000000 
  76.680000   130.000000     0.007692   126.465324     0.000000 
  76.700000   120.000000     0.008333   126.184864     0.000000 
  76.720000   137.000000     0.007299   125.912986     0.000000 
  76.740000   117.000000     0.008547   125.649386     0.000000 
  76.760000   136.000000     0.007353   125.393771     0.000000 
  76.780000   138.000000     0.007246   125.145864     0.000000 
  76.800000   129.000000     0.007752   124.905400     0.000000 
  76.820000   139.000000     0.007194   124.672126     0.000000 
  76.840000   145.000000     0.006897   124.445802     0.000000 
  76.860000   131.000000     0.007634   124.226196     0.000000 
  76.880000   130.000000     0.007692   124.013089     0.000000 
  76.900000   116.000000     0.008621   123.806269     0.000000 
  76.920000   166.000000     0.006024   123.605536     0.000000 
  76.940000   110.000000     0.009091   123.410697     0.000000 
  76.960000   124.000000     0.008065   123.221568     0.000000 
  76.980000   137.000000     0.007299   123.037973     0.000000 
  77.000000   143.000000     0.006993   122.859744     0.000000 
  77.020000   133.000000     0.007519   122.686719     0.000000 
  77.040000   130.000000     0.007692   122.518743     0.000000 
  77.060000   131.000000     0.007634   122.355669     0.000000 
  77.080000   158.000000     0.006329   122.197355     0.000000 
  77.100000   135.000000     0.007407   122.043665     0.000000 
  77.120000   134.000000     0.007463   121.894468     0.000000 
  77.140000   120.000000     0.008333   121.749641     0.000000 
  77.160000   144.000000     0.006944   121.609064     0.000000 
  77.180000   133.000000     0.007519   121.505820     0.000000 
  77.200000   150.000000     0.006667   121.373594     0.000000 
  77.220000   142.000000     0.007042   121.245291     0.000000 
  77.240000   118.000000     0.008475   121.120808     0.000000 
  77.260000   124.000000     0.008065   121.000051     0.000000 
  77.280000   143.000000     0.006993   120.882925     0.000000 
  77.300000   145.000000     0.006897   120.769344     0.000000 
  77.320000   122.000000     0.008197   120.659221     0.000000 
  77.340000   114.000000     0.008772   120.552476     0.000000 
  77.360000   130.000000     0.007692   120.449031     0.000000 
  77.380000   124.000000     0.008065   120.348813     0.000000 
  77.400000   141.000000     0.007092   120.251749     0.000000 
  77.420000   128.000000     0.007812   120.157773     0.000000 
  77.440000   125.000000     0.008000   120.066820     0.000000 
  77.460000   121.000000     0.008264   120.113528     0.000000 
  77.480000   139.000000     0.007194   120.029207     0.000000 
  77.500000   104.000000     0.009615   119.947741     0.000000 
  77.520000   130.000000     0.007692   119.869076     0.000000 
  77.540000   126.000000     0.007937   119.793165     0.000000 
  77.560000   140.000000     0.007143   119.719961     0.000000 
  77.580000   131.000000     0.007634   119.649420     0.000000 
  77.600000   114.000000     0.008772   119.581503     0.000000 
  77.620000   142.000000     0.007042   119.516172     0.000000 
  77.640000   128.000000     0.007812   119.453396     0.000000 
  77.660000   113.000000     0.008850   119.393143     0.000000 
  77.680000   147.000000     0.006803   119.335390     0.000000 
  77.700000   116.000000     0.008621   119.280114     0.000000 
  77.720000   119.000000     0.008403   119.227300     0.000000 
  77.740000   118.000000     0.008475   119.176938     0.000000 
  77.760000    95.000000     0.010526   119.129022     0.000000 
  77.780000   126.000000     0.007937   119.083555     0.000000 
  77.800000   123.000000     0.008130   119.040547     0.000000 
  77.820000   134.000000     0.007463   119.000015     0.000000 
  77.840000   124.000000     0.008065   118.961985     0.000000 
  77.860000   114.000000     0.008772   118.926494     0.000000 
  77.880000   130.000000     0.007692   118.893587     0.000000 
  77.900000   140.000000     0.007143   118.863317     0.000000 
  77.920000   102.000000     0.009804   118.835748     0.000000 
  77.940000   120.000000     0.008333   118.810953     0.000000 
  77.960000   112.000000     0.008929   118.789009     0.000000 
  77.980000   121.000000     0.008264   118.770001     0.000000 
  78.000000   131.000000     0.007634   118.754012     0.000000 
  78.020000   132.000000     0.007576   118.741125     0.000000 
  78.040000   114.000000     0.008772   118.731410     0.000000 
  78.060000   118.000000     0.008475   118.724918     0.000000 
  78.080000   118.000000     0.008475   118.721659     0.000000 
  78.100000   111.000000     0.009009   118.721587     0.000000 
  78.120000   122.000000     0.008197   118.724561     0.000000 
  78.140000   145.000000     0.006897   118.730310     0.000000 
  78.160000   128.000000     0.007812   118.738390     0.000000 
  78.180000   105.000000     0.009524   118.748154     0.000000 
  78.200000   132.000000     0.007576   118.758909     0.000000 
  78.220000   104.000000     0.009615   118.769347     0.000000 
  78.240000   129.000000     0.007752   118.778633     0.000000 
  78.260000   135.000000     0.007407   118.890167     0.000000 
  78.280000   149.000000     0.006711   118.895764     0.000000 
  78.300000    97.000000     0.010309   118.899177     0.000000 
  78.320000   132.000000     0.007576   118.901047     0.000000 
  78.340000   148.000000     0.006757   118.902369     0.000000 
  78.360000   141.000000     0.007092   118.904280     0.000000 
  78.380000   135.000000     0.007407   118.907874     0.000000 
  78.400000   119.000000     0.008403   118.914093     0.000000 
  78.420000   102.000000     0.009804   118.923683     0.000000 
  78.440000   145.000000     0.006897   118.937215     0.000000 
  78.460000   131.000000     0.007634   118.955125     0.000000 
  78.480000   127.000000     0.007874   118.977760     0.000000 
  78.500000   124.000000     0.008065   119.005427     0.000000 
  78.520000   129.000000     0.007752   119.038428     0.000000 
  78.540000   109.000000     0.009174   119.077088     0.000000 
  78.560000   139.000000     0.007194   119.121782     0.000000 
  78.580000   108.000000     0.009259   119.172958     0.000000 
  78.600000   127.000000     0.007874   119.231147     0.000000 
  78.620000   116.000000     0.008621   119.296986     0.000000 
  78.640000   132.000000     0.007576   119.371223     0.000000 
  78.660000   123.000000     0.008130   119.454730     0.000000 
  78.680000   126.000000     0.007937   119.548506     0.000000 
  78.700000   132.000000     0.007576   119.630521     0.000000 
  78.720000   135.000000     0.007407   119.748507     0.000000 
  78.740000   123.000000     0.008130   119.880486     0.000000 
  78.760000   137.000000     0.007299   120.027896     0.000000 
  78.780000   114.000000     0.008772   120.192222     0.000000 
  78.800000   127.000000     0.007874   120.374952     0.000000 
  78.820000   133.000000     0.007519   120.577495     0.000000 
  78.840000   118.000000     0.008475   120.801077     0.000000 
  78.860000   130.000000     0.007692   121.046579     0.000000 
  78.880000   137.000000     0.007299   121.314299     0.000000 
  78.900000   120.000000     0.008333   121.603618     0.000000 
  78.920000   146.000000     0.006849   121.912536     0.000000 
  78.940000   155.000000     0.006452   122.237097     0.000000 
  78.960000   131.000000     0.007634   122.570759     0.000000 
  78.980000   152.000000     0.006579   122.903892     0.000000 
  79.000000   156.000000     0.006410   123.223694     0.000000 
  79.020000   161.000000     0.006211   123.514934     0.000000 
  79.040000   148.000000     0.006757   123.761804     0.000000 
  79.060000   124.000000     0.008065   123.950773     0.000000 
  79.080000   146.000000     0.006849   124.073712     0.000000 
  79.100000   127.000000     0.007874   124.130080     0.000000 
  79.120000   131.000000     0.007634   123.874713     0.000000 
  79.140000   138.000000     0.007246   123.827703     0.000000 
  79.160000   141.000000     0.007092   123.750909     0.000000 
  79.180000   117.000000     0.008547   123.660330     0.000000 
  79.200000   140.000000     0.007143   123.569466     0.000000 
  79.220000   142.000000     0.007042   123.488127     0.000000 
  79.240000   140.000000     0.007143   123.422131     0.000000 
  79.260000   134.000000     0.007463   123.373539     0.000000 
  79.280000   140.000000     0.007143   123.341164     0.000000 
  79.300000   130.000000     0.007692   123.321274     0.000000 
  79.320000   141.000000     0.007092   123.308517     0.000000 
  79.340000   136.000000     0.007353   123.297102     0.000000 
  79.360000   147.000000     0.006803   123.282100     0.000000 
  79.380000   135.000000     0.007407   123.260583     0.000000 
  79.400000   147.000000     0.006803   123.232197     0.000000 
  79.420000   125.000000     0.008000   123.198998     0.000000 
  79.440000   129.000000     0.007752   123.164680     0.000000 
  79.460000   138.000000     0.007246   123.133548     0.000000 
  79.480000   149.000000     0.006711   123.109650     0.000000 
  79.500000   142.000000     0.007042   123.096237     0.000000 
  79.520000   130.000000     0.007692   123.095591     0.000000 
  79.540000   136.000000     0.007353   123.109079     0.000000 
  79.560000   140.000000     0.007143   123.137337     0.000000 
  79.580000   117.000000     0.008547   123.180475     0.000000 
  79.600000   118.000000     0.008475   123.238255     0.000000 
  79.620000   125.000000     0.008000   123.310231     0.000000 
  79.640000   127.000000     0.007874   123.395848     0.000000 
  79.660000   137.000000     0.007299   123.494509     0.000000 
  79.680000   142.000000     0.007042   123.605616     0.000000 
  79.700000   149.000000     0.006711   123.728597     0.000000 
  79.720000   143.000000     0.006993   123.247543     0.000000 
  79.740000   136.000000     0.007353   123.397244     0.000000 
  79.760000   132.000000     0.007576   123.557353     0.000000 
  79.780000   130.000000     0.007692   123.727521     0.000000 
  79.800000   131.000000     0.007634   123.907461     0.000000 
  79.820000   112.000000     0.008929   124.096956     0.000000 
  79.840000   128.000000     0.007812   124.295849     0.000000 
  79.860000   163.000000     0.006135   124.504045     0.000000 
  79.880000   132.000000     0.007576   124.721507     0.000000 
  79.900000   131.000000     0.007634   124.948252     0.000000 
  79.920000   148.000000     0.006757   125.184350     0.000000 
  79.940000   144.000000     0.006944   125.429918     0.000000 
  79.960000   134.000000     0.007463   125.685115     0.000000 
  79.980000   127.000000     0.007874   125.950144     0.000000 
  80.000000   151.000000     0.006623   126.225247     0.000000 
  80.020000   125.000000     0.008000   126.510701     0.000000 
  80.040000   147.000000     0.006803   126.806821     0.000000 
  80.060000   142.000000     0.007042   127.113954     0.000000 
  80.080000   138.000000     0.007246   127.432485     0.000000 
  80.100000   127.000000     0.007874   127.762830     0.000000 
  80.120000   164.000000     0.006098   128.105442     0.000000 
  80.140000   125.000000     0.008000   126.940200     0.000000 
  80.160000   100.000000     0.010000   127.319865     0.000000 
  80.180000   146.000000     0.006849   127.713257     0.000000 
  80.200000   150.000000     0.006667   128.120981     0.000000 
  80.220000   124.000000     0.008065   128.543688     0.000000 
  80.240000   128.000000     0.007812   128.843635     0.000000 
  80.260000   129.000000     0.007752   129.299443     0.000000 
  80.280000   141.000000     0.007092   129.772458     0.000000 
  80.300000   134.000000     0.007463   130.263531     0.000000 
  80.320000   148.000000     0.006757   130.773573     0.000000 
  80.340000   139.000000     0.007194   131.303559     0.000000 
  80.360000   119.000000     0.008403   132.064049     0.000000 
  80.380000   151.000000     0.006623   132.638227     0.000000 
  80.400000   129.000000     0.007752   133.235721     0.000000 
  80.420000   122.000000     0.008197   133.857816     0.000000 
  80.440000   156.000000     0.006410   134.505897     0.000000 
  80.460000   139.000000     0.007194   135.181447     0.000000 
  80.480000   144.000000     0.006944   135.886066     0.000000 
  80.500000   151.000000     0.006623   136.621474     0.000000 
  80.520000   146.000000     0.006849   137.389528     0.000000 
  80.540000   132.000000     0.007576   138.192230     0.000000 
  80.560000   136.000000     0.007353   139.031747     0.000000 
  80.580000   132.000000     0.007576   139.910422     0.000000 
  80.600000   177.000000     0.005650   140.830797     0.000000 
  80.620000   166.000000     0.006024   141.795633     0.000000 
  80.640000   164.000000     0.006098   142.807937     0.000000 
  80.660000   170.000000     0.005882   143.870988     0.000000 
  80.680000   150.000000     0.006667   144.988374     0.000000 
  80.700000   159.000000     0.006289   146.164032     0.000000 
  80.720000   147.000000     0.006803   147.402299     0.000000 
  80.740000   143.000000     0.006993   148.707965     0.000000 
  80.760000   148.000000     0.006757   150.086349     0.000000 
  80.780000   139.000000     0.007194   151.543378     0.000000 
  80.800000   160.000000     0.006250   153.085689     0.000000 
  80.820000   162.000000     0.006173   154.720751     0.000000 
  80.840000   146.000000     0.006849   156.456991     0.000000 
  80.860000   149.000000     0.006711   158.303975     0.000000 
  80.880000   179.000000     0.005587   160.272580     0.000000 
  80.900000   180.000000     0.005556   162.375209     0.000000 
  80.920000   144.000000     0.006944   164.626019     0.000000 
  80.940000   157.000000     0.006369   167.041169     0.000000 
  80.960000   180.000000     0.005556   169.639077     0.000000 
  80.980000   173.000000     0.005780   172.440685     0.000000 
  81.000000   178.000000     0.005618   175.469705     0.000000 
  81.020000   178.000000     0.005618   178.752852     0.000000 
  81.040000   164.000000     0.006098   182.320041     0.000000 
  81.060000   174.000000     0.005747   186.204526     0.000000 
  81.080000   189.000000     0.005291   190.584596     0.000000 
  81.100000   199.000000     0.005025   195.217876     0.000000 
  81.120000   200.000000     0.005000   200.288716     0.000000 
  81.140000   190.000000     0.005263   205.843754     0.000000 
  81.160000   198.000000     0.005051   211.932491     0.000000 
  81.180000   199.000000     0.005025   218.606816     0.000000 
  81.200000   243.000000     0.004115   225.920296     0.000000 
  81.220000   240.000000     0.004167   233.927076     0.000000 
  81.240000   230.000000     0.004348   242.680218     0.000000 
  81.260000   245.000000     0.004082   252.229158     0.000000 
  81.280000   231.000000     0.004329   262.615926     0.000000 
  81.300000   267.000000     0.003745   273.869769     0.000000 
  81.320000   301.000000     0.003322   285.999970     0.000000 
  81.340000   315.000000     0.003175   298.987261     0.000000 
  81.360000   311.000000     0.003215   312.775282     0.000000 
  81.380000   319.000000     0.003135   327.265240     0.000000 
  81.400000   369.000000     0.002710   342.318815     0.000000 
  81.420000   385.000000     0.002597   357.774806     0.000000 
  81.440000   346.000000     0.002890   373.486469     0.000000 
  81.460000   353.000000     0.002833   389.369996     0.000000 
  81.480000   376.000000     0.002660   405.462536     0.000000 
  81.500000   363.000000     0.002755   421.963776     0.000000 
  81.520000   369.000000     0.002710   439.247011     0.000000 
  81.540000   416.000000     0.002404   457.833684     0.000000 
  81.560000   394.000000     0.002538   478.340900     0.000000 
  81.580000   407.000000     0.002457   501.420114     0.000000 
  81.600000   396.000000     0.002525   527.703343     0.000000 
  81.620000   472.000000     0.002119   557.764520     0.000000 
  81.640000   484.000000     0.002066   592.094515     0.000000 
  81.660000   512.000000     0.001953   631.082950     0.000000 
  81.680000   542.000000     0.001845   674.998311     0.000000 
  81.700000   596.000000     0.001678   723.958354     0.000000 
  81.720000   661.000000     0.001513   777.883984     0.000000 
  81.740000   688.000000     0.001453   836.431392     0.000000 
  81.760000   763.000000     0.001311   898.900292     0.000000 
  81.780000   818.000000     0.001222   964.122447     0.000000 
  81.800000   940.000000     0.001064  1030.346730     0.000000 
  81.820000  1051.000000     0.000951  1095.154968     0.000000 
  81.840000  1177.000000     0.000850  1155.463792     0.000000 
  81.860000  1203.000000     0.000831  1207.678878     0.000000 
  81.880000  1261.000000     0.000793  1248.050782     0.000000 
  81.900000  1225.000000     0.000816  1273.218582     0.000000 
  81.920000  1142.000000     0.000876  1280.829371     0.000000 
  81.940000  1096.000000     0.000912  1270.039127     0.000000 
  81.960000   973.000000     0.001028  1241.700787     0.000000 
  81.980000   918.000000     0.001089  1198.164978     0.000000 
  82.000000   836.000000     0.001196  1142.771346     0.000000 
  82.020000   844.000000     0.001185  1079.229425     0.000000 
  82.040000   837.000000     0.001195  1011.080344     0.000000 
  82.060000   812.000000     0.001232   941.348403     0.000000 
  82.080000   840.000000     0.001190   872.393695     0.000000 
  82.100000   868.000000     0.001152   805.915520     0.000000 
  82.120000   819.000000     0.001221   743.040407     0.000000 
  82.140000   741.000000     0.001350   684.440475     0.000000 
  82.160000   750.000000     0.001333   630.448894     0.000000 
  82.180000   635.000000     0.001575   581.157087     0.000000 
  82.200000   583.000000     0.001715   536.490036     0.000000 
  82.220000   552.000000     0.001812   496.261802     0.000000 
  82.240000   469.000000     0.002132   460.215424     0.000000 
  82.260000   442.000000     0.002262   428.051368     0.000000 
  82.280000   388.000000     0.002577   399.447926     0.000000 
  82.300000   345.000000     0.002899   374.076045     0.000000 
  82.320000   369.000000     0.002710   351.610205     0.000000 
  82.340000   315.000000     0.003175   331.736424     0.000000 
  82.360000   298.000000     0.003356   314.158030     0.000000 
  82.380000   302.000000     0.003311   298.599611     0.000000 
  82.400000   288.000000     0.003472   284.809459     0.000000 
  82.420000   234.000000     0.004274   272.560728     0.000000 
  82.440000   249.000000     0.004016   261.651541     0.000000 
  82.460000   245.000000     0.004082   251.904249     0.000000 
  82.480000   228.000000     0.004386   243.164059     0.000000 
  82.500000   253.000000     0.003953   235.297229     0.000000 
  82.520000   218.000000     0.004587   228.188994     0.000000 
  82.540000   210.000000     0.004762   221.741394     0.000000 
  82.560000   214.000000     0.004673   215.871118     0.000000 
  82.580000   226.000000     0.004425   210.507458     0.000000 
  82.600000   199.000000     0.005025   205.590444     0.000000 
  82.620000   205.000000     0.004878   201.069178     0.000000 
  82.640000   200.000000     0.005000   196.900387     0.000000 
  82.660000   174.000000     0.005747   193.047169     0.000000 
  82.680000   200.000000     0.005000   189.477926     0.000000 
  82.700000   195.000000     0.005128   186.165448     0.000000 
  82.720000   180.000000     0.005556   183.086147     0.000000 
  82.740000   179.000000     0.005587   180.219429     0.000000 
  82.760000   171.000000     0.005848   177.547181     0.000000 
  82.780000   185.000000     0.005405   175.053367     0.000000 
  82.800000   196.000000     0.005102   172.723707     0.000000 
  82.820000   179.000000     0.005587   170.545424     0.000000 
  82.840000   196.000000     0.005102   168.507042     0.000000 
  82.860000   205.000000     0.004878   166.598219     0.000000 
  82.880000   158.000000     0.006329   164.809615     0.000000 
  82.900000   153.000000     0.006536   163.132778     0.000000 
  82.920000   165.000000     0.006061   161.560043     0.000000 
  82.940000   173.000000     0.005780   160.096195     0.000000 
  82.960000   159.000000     0.006289   158.711489     0.000000 
  82.980000   167.000000     0.005988   157.411861     0.000000 
  83.000000   160.000000     0.006250   156.192083     0.000000 
  83.020000   161.000000     0.006211   155.047399     0.000000 
  83.040000   165.000000     0.006061   153.973479     0.000000 
  83.060000   152.000000     0.006579   152.966391     0.000000 
  83.080000   146.000000     0.006849   152.022558     0.000000 
  83.100000   164.000000     0.006098   151.138735     0.000000 
  83.120000   161.000000     0.006211   150.311986     0.000000 
  83.140000   160.000000     0.006250   149.539656     0.000000 
  83.160000   136.000000     0.007353   148.819356     0.000000 
  83.180000   147.000000     0.006803   148.148946     0.000000 
  83.200000   135.000000     0.007407   147.526519     0.000000 
  83.220000   138.000000     0.007246   146.950390     0.000000 
  83.240000   131.000000     0.007634   146.419089     0.000000 
  83.260000   147.000000     0.006803   145.931349     0.000000 
  83.280000   155.000000     0.006452   145.486105     0.000000 
  83.300000   138.000000     0.007246   145.082490     0.000000 
  83.320000   159.000000     0.006289   144.719838     0.000000 
  83.340000   156.000000     0.006410   144.397680     0.000000 
  83.360000   125.000000     0.008000   144.115760     0.000000 
  83.380000   130.000000     0.007692   143.874039     0.000000 
  83.400000   164.000000     0.006098   143.672711     0.000000 
  83.420000   120.000000     0.008333   143.512224     0.000000 
  83.440000   147.000000     0.006803   143.393303     0.000000 
  83.460000   159.000000     0.006289   143.316979     0.000000 
  83.480000   145.000000     0.006897   143.284631     0.000000 
  83.500000   141.000000     0.007092   143.298023     0.000000 
  83.520000   138.000000     0.007246   143.359362     0.000000 
  83.540000   161.000000     0.006211   143.471344     0.000000 
  83.560000   142.000000     0.007042   143.637227     0.000000 
  83.580000   156.000000     0.006410   143.860891     0.000000 
  83.600000   157.000000     0.006369   144.146906     0.000000 
  83.620000   140.000000     0.007143   144.500606     0.000000 
  83.640000   136.000000     0.007353   145.432048     0.000000 
  83.660000   167.000000     0.005988   145.942895     0.000000 
  83.680000   148.000000     0.006757   146.542643     0.000000 
  83.700000   156.000000     0.006410   147.240258     0.000000 
  83.720000   155.000000     0.006452   148.045706     0.000000 
  83.740000   156.000000     0.006410   148.969953     0.000000 
  83.760000   195.000000     0.005128   150.024951     0.000000 
  83.780000   189.000000     0.005291   151.223588     0.000000 
  83.800000   144.000000     0.006944   152.579613     0.000000 
  83.820000   158.000000     0.006329   154.107523     0.000000 
  83.840000   147.000000     0.006803   155.822390     0.000000 
  83.860000   143.000000     0.006993   157.739611     0.000000 
  83.880000   165.000000     0.006061   159.874536     0.000000 
  83.900000   186.000000     0.005376   162.241909     0.000000 
  83.920000   161.000000     0.006211   164.855050     0.000000 
  83.940000   181.000000     0.005525   167.724672     0.000000 
  83.960000   196.000000     0.005102   170.857226     0.000000 
  83.980000   197.000000     0.005076   174.252730     0.000000 
  84.000000   200.000000     0.005000   177.902133     0.000000 
  84.020000   183.000000     0.005464   181.784493     0.000000 
  84.040000   183.000000     0.005464   185.864642     0.000000 
  84.060000   248.000000     0.004032   190.092395     0.000000 
  84.080000   210.000000     0.004762   194.404747     0.000000 
  84.100000   215.000000     0.004651   198.732334     0.000000 
  84.120000   200.000000     0.005000   203.010531     0.000000 
  84.140000   211.000000     0.004739   207.193693     0.000000 
  84.160000   227.000000     0.004405   211.268969     0.000000 
  84.180000   212.000000     0.004717   215.265031     0.000000 
  84.200000   212.000000     0.004717   219.252064     0.000000 
  84.220000   211.000000     0.004739   223.332368     0.000000 
  84.240000   229.000000     0.004367   227.624165     0.000000 
  84.260000   217.000000     0.004608   232.242897     0.000000 
  84.280000   204.000000     0.004902   237.283752     0.000000 
  84.300000   261.000000     0.003831   242.806950     0.000000 
  84.320000   244.000000     0.004098   248.826900     0.000000 
  84.340000   249.000000     0.004016   255.300877     0.000000 
  84.360000   276.000000     0.003623   262.120615     0.000000 
  84.380000   271.000000     0.003690   269.104066     0.000000 
  84.400000   284.000000     0.003521   275.991038     0.000000 
  84.420000   282.000000     0.003546   282.446929     0.000000 
  84.440000   326.000000     0.003067   288.080054     0.000000 
  84.460000   380.000000     0.002632   292.476665     0.000000 
  84.480000   301.000000     0.003322   295.252953     0.000000 
  84.500000   291.000000     0.003436   296.115517     0.000000 
  84.520000   282.000000     0.003546   294.914658     0.000000 
  84.540000   262.000000     0.003817   291.673222     0.000000 
  84.560000   250.000000     0.004000   286.803280     0.000000 
  84.580000   259.000000     0.003861   280.178456     0.000000 
  84.600000   272.000000     0.003676   272.409489     0.000000 
  84.620000   256.000000     0.003906   263.899058     0.000000 
  84.640000   213.000000     0.004695   255.018198     0.000000 
  84.660000   226.000000     0.004425   246.079521     0.000000 
  84.680000   234.000000     0.004274   237.327555     0.000000 
  84.700000   253.000000     0.003953   228.941187     0.000000 
  84.720000   234.000000     0.004274   221.042711     0.000000 
  84.740000   248.000000     0.004032   213.709170     0.000000 
  84.760000   263.000000     0.003802   206.983343     0.000000 
  84.780000   210.000000     0.004762   200.883147     0.000000 
  84.800000   217.000000     0.004608   195.409111     0.000000 
  84.820000   212.000000     0.004717   190.550080     0.000000 
  84.840000   201.000000     0.004975   186.287486     0.000000 
  84.860000   199.000000     0.005025   182.598521     0.000000 
  84.880000   181.000000     0.005525   179.458531     0.000000 
  84.900000   196.000000     0.005102   176.842831     0.000000 
  84.920000   187.000000     0.005348   174.728124     0.000000 
  84.940000   206.000000     0.004854   173.093518     0.000000 
  84.960000   202.000000     0.004950   171.921365     0.000000 
  84.980000   172.000000     0.005814   171.197797     0.000000 
  85.000000   173.000000     0.005780   170.913039     0.000000 
  85.020000   213.000000     0.004695   171.061506     0.000000 
  85.040000   176.000000     0.005682   171.641677     0.000000 
  85.060000   184.000000     0.005435   172.655763     0.000000 
  85.080000   163.000000     0.006135   174.109163     0.000000 
  85.100000   172.000000     0.005814   176.009711     0.000000 
  85.120000   169.000000     0.005917   178.366702     0.000000 
  85.140000   184.000000     0.005435   181.189641     0.000000 
  85.160000   197.000000     0.005076   184.486684     0.000000 
  85.180000   203.000000     0.004926   188.262625     0.000000 
  85.200000   157.000000     0.006369   192.516296     0.000000 
  85.220000   207.000000     0.004831   197.237169     0.000000 
  85.240000   196.000000     0.005102   202.397395     0.000000 
  85.260000   196.000000     0.005102   207.960302     0.000000 
  85.280000   198.000000     0.005051   213.852274     0.000000 
  85.300000   230.000000     0.004348   219.969179     0.000000 
  85.320000   239.000000     0.004184   226.165223     0.000000 
  85.340000   248.000000     0.004032   232.247489     0.000000 
  85.360000   263.000000     0.003802   237.975678     0.000000 
  85.380000   263.000000     0.003802   243.070670     0.000000 
  85.400000   297.000000     0.003367   247.234942     0.000000 
  85.420000   252.000000     0.003968   250.185084     0.000000 
  85.440000   249.000000     0.004016   251.692016     0.000000 
  85.460000   236.000000     0.004237   251.619495     0.000000 
  85.480000   251.000000     0.003984   249.949342     0.000000 
  85.500000   212.000000     0.004717   246.784706     0.000000 
  85.520000   231.000000     0.004329   242.330210     0.000000 
  85.540000   201.000000     0.004975   236.855874     0.000000 
  85.560000   217.000000     0.004608   230.656195     0.000000 
  85.580000   232.000000     0.004310   224.013554     0.000000 
  85.600000   202.000000     0.004950   217.179195     0.000000 
  85.620000   214.000000     0.004673   210.354225     0.000000 
  85.640000   211.000000     0.004739   203.692702     0.000000 
  85.660000   185.000000     0.005405   197.304718     0.000000 
  85.680000   199.000000     0.005025   191.263574     0.000000 
  85.700000   190.000000     0.005263   185.613519     0.000000 
  85.720000   205.000000     0.004878   180.376788     0.000000 
  85.740000   206.000000     0.004854   175.559423     0.000000 
  85.760000   194.000000     0.005155   171.155838     0.000000 
  85.780000   156.000000     0.006410   167.152268     0.000000 
  85.800000   171.000000     0.005848   163.529345     0.000000 
  85.820000   159.000000     0.006289   160.264023     0.000000 
  85.840000   174.000000     0.005747   157.331026     0.000000 
  85.860000   190.000000     0.005263   154.703960     0.000000 
  85.880000   151.000000     0.006623   152.356171     0.000000 
  85.900000   148.000000     0.006757   150.261416     0.000000 
  85.920000   138.000000     0.007246   148.394380     0.000000 
  85.940000   145.000000     0.006897   146.731066     0.000000 
  85.960000   133.000000     0.007519   145.249070     0.000000 
  85.980000   139.000000     0.007194   143.927765     0.000000 
  86.000000   129.000000     0.007752   142.748396     0.000000 
  86.020000   144.000000     0.006944   141.694098     0.000000 
  86.040000   130.000000     0.007692   140.749869     0.000000 
  86.060000   121.000000     0.008264   139.902481     0.000000 
  86.080000   139.000000     0.007194   139.140369     0.000000 
  86.100000   151.000000     0.006623   138.453489     0.000000 
  86.120000   140.000000     0.007143   137.833173     0.000000 
  86.140000   143.000000     0.006993   137.271969     0.000000 
  86.160000   125.000000     0.008000   136.763497     0.000000 
  86.180000   137.000000     0.007299   136.302303     0.000000 
  86.200000   142.000000     0.007042   135.883728     0.000000 
  86.220000   128.000000     0.007812   135.503790     0.000000 
  86.240000   162.000000     0.006173   135.159082     0.000000 
  86.260000   126.000000     0.007937   134.846681     0.000000 
  86.280000   130.000000     0.007692   134.564072     0.000000 
  86.300000   151.000000     0.006623   134.309082     0.000000 
  86.320000   128.000000     0.007812   134.079832     0.000000 
  86.340000   146.000000     0.006849   133.874683     0.000000 
  86.360000   139.000000     0.007194   133.692208     0.000000 
  86.380000   130.000000     0.007692   133.531159     0.000000 
  86.400000   109.000000     0.009174   133.390448     0.000000 
  86.420000   137.000000     0.007299   133.269118     0.000000 
  86.440000   122.000000     0.008197   133.166337     0.000000 
  86.460000   123.000000     0.008130   133.250733     0.000000 
  86.480000   122.000000     0.008197   133.183715     0.000000 
  86.500000   151.000000     0.006623   133.133356     0.000000 
  86.520000   133.000000     0.007519   133.099197     0.000000 
  86.540000   130.000000     0.007692   133.080855     0.000000 
  86.560000   134.000000     0.007463   133.078017     0.000000 
  86.580000   135.000000     0.007407   133.090439     0.000000 
  86.600000   119.000000     0.008403   133.117938     0.000000 
  86.620000   134.000000     0.007463   133.160394     0.000000 
  86.640000   133.000000     0.007519   133.217746     0.000000 
  86.660000   145.000000     0.006897   133.289991     0.000000 
  86.680000   133.000000     0.007519   133.377184     0.000000 
  86.700000   137.000000     0.007299   133.479438     0.000000 
  86.720000   133.000000     0.007519   133.596921     0.000000 
  86.740000   146.000000     0.006849   133.729863     0.000000 
  86.760000   125.000000     0.008000   133.880217     0.000000 
  86.780000   111.000000     0.009009   134.045003     0.000000 
  86.800000   113.000000     0.008850   134.226293     0.000000 
  86.820000   143.000000     0.006993   134.506425     0.000000 
  86.840000   116.000000     0.008621   134.722581     0.000000 
  86.860000   125.000000     0.008000   134.956886     0.000000 
  86.880000   149.000000     0.006711   135.210038     0.000000 
  86.900000   134.000000     0.007463   135.482818     0.000000 
  86.920000   140.000000     0.007143   135.776096     0.000000 
  86.940000   148.000000     0.006757   136.090840     0.000000 
  86.960000   144.000000     0.006944   136.428124     0.000000 
  86.980000   148.000000     0.006757   136.789139     0.000000 
  87.000000   128.000000     0.007812   137.175204     0.000000 
  87.020000   138.000000     0.007246   137.587782     0.000000 
  87.040000   163.000000     0.006135   138.028497     0.000000 
  87.060000   136.000000     0.007353   138.499155     0.000000 
  87.080000   142.000000     0.007042   139.001768     0.000000 
  87.100000   161.000000     0.006211   139.538589     0.000000 
  87.120000   128.000000     0.007812   140.112145     0.000000 
  87.140000   125.000000     0.008000   140.725283     0.000000 
  87.160000   142.000000     0.007042   141.381229     0.000000 
  87.180000   154.000000     0.006494   142.083648     0.000000 
  87.200000   145.000000     0.006897   142.836731     0.000000 
  87.220000   140.000000     0.007143   143.645283     0.000000 
  87.240000   135.000000     0.007407   144.514840     0.000000 
  87.260000   128.000000     0.007812   145.451799     0.000000 
  87.280000   146.000000     0.006849   146.463568     0.000000 
  87.300000   144.000000     0.006944   147.558738     0.000000 
  87.320000   146.000000     0.006849   148.747278     0.000000 
  87.340000   144.000000     0.006944   150.040741     0.000000 
  87.360000   155.000000     0.006452   151.452488     0.000000 
  87.380000   126.000000     0.007937   152.997927     0.000000 
  87.400000   124.000000     0.008065   154.694746     0.000000 
  87.420000   156.000000     0.006410   156.563138     0.000000 
  87.440000   142.000000     0.007042   158.626009     0.000000 
  87.460000   130.000000     0.007692   160.909147     0.000000 
  87.480000   147.000000     0.006803   163.441346     0.000000 
  87.500000   167.000000     0.005988   166.254446     0.000000 
  87.520000   167.000000     0.005988   169.383307     0.000000 
  87.540000   165.000000     0.006061   172.865656     0.000000 
  87.560000   162.000000     0.006173   176.741827     0.000000 
  87.580000   203.000000     0.004926   181.054356     0.000000 
  87.600000   176.000000     0.005682   185.847423     0.000000 
  87.620000   171.000000     0.005848   191.166116     0.000000 
  87.640000   165.000000     0.006061   197.055505     0.000000 
  87.660000   185.000000     0.005405   203.559484     0.000000 
  87.680000   183.000000     0.005464   210.719329     0.000000 
  87.700000   169.000000     0.005917   218.571890     0.000000 
  87.720000   168.000000     0.005952   227.147305     0.000000 
  87.740000   225.000000     0.004444   236.466039     0.000000 
  87.760000   214.000000     0.004673   246.535044     0.000000 
  87.780000   210.000000     0.004762   257.342732     0.000000 
  87.800000   234.000000     0.004274   268.852474     0.000000 
  87.820000   240.000000     0.004167   280.994417     0.000000 
  87.840000   251.000000     0.003984   293.655605     0.000000 
  87.860000   279.000000     0.003584   306.668927     0.000000 
  87.880000   309.000000     0.003236   319.802210     0.000000 
  87.900000   346.000000     0.002890   332.749955     0.000000 
  87.920000   366.000000     0.002732   345.131479     0.000000 
  87.940000   384.000000     0.002604   356.500211     0.000000 
  87.960000   461.000000     0.002169   366.368433     0.000000 
  87.980000   465.000000     0.002151   374.249259     0.000000 
  88.000000   430.000000     0.002326   379.712537     0.000000 
  88.020000   386.000000     0.002591   382.444938     0.000000 
  88.040000   359.000000     0.002786   382.215082     0.000000 
  88.060000   347.000000     0.002882   379.238214     0.000000 
  88.080000   338.000000     0.002959   373.659153     0.000000 
  88.100000   296.000000     0.003378   365.855423     0.000000 
  88.120000   293.000000     0.003413   356.295920     0.000000 
  88.140000   316.000000     0.003165   345.481211     0.000000 
  88.160000   297.000000     0.003367   333.893034     0.000000 
  88.180000   306.000000     0.003268   321.959925     0.000000 
  88.200000   287.000000     0.003484   310.039782     0.000000 
  88.220000   321.000000     0.003115   298.416191     0.000000 
  88.240000   330.000000     0.003030   287.303767     0.000000 
  88.260000   322.000000     0.003106   276.858118     0.000000 
  88.280000   311.000000     0.003215   267.187182     0.000000 
  88.300000   290.000000     0.003448   258.361993     0.000000 
  88.320000   245.000000     0.004082   250.425929     0.000000 
  88.340000   266.000000     0.003759   243.402196     0.000000 
  88.360000   241.000000     0.004149   237.299640     0.000000 
  88.380000   263.000000     0.003802   232.117150     0.000000 
  88.400000   236.000000     0.004237   227.846949     0.000000 
  88.420000   202.000000     0.004950   224.477000     0.000000 
  88.440000   227.000000     0.004405   221.992760     0.000000 
  88.460000   174.000000     0.005747   220.378394     0.000000 
  88.480000   193.000000     0.005181   219.617556     0.000000 
  88.500000   184.000000     0.005435   219.693785     0.000000 
  88.520000   217.000000     0.004608   220.590528     0.000000 
  88.540000   205.000000     0.004878   221.287218     0.000000 
  88.560000   197.000000     0.005076   223.778846     0.000000 
  88.580000   201.000000     0.004975   227.035097     0.000000 
  88.600000   184.000000     0.005435   231.031023     0.000000 
  88.620000   217.000000     0.004608   235.734822     0.000000 
  88.640000   211.000000     0.004739   241.104408     0.000000 
  88.660000   237.000000     0.004219   247.082958     0.000000 
  88.680000   232.000000     0.004310   253.593391     0.000000 
  88.700000   242.000000     0.004132   260.531870     0.000000 
  88.720000   279.000000     0.003584   267.760828     0.000000 
  88.740000   285.000000     0.003509   275.102515     0.000000 
  88.760000   330.000000     0.003030   282.334798     0.000000 
  88.780000   368.000000     0.002717   289.191648     0.000000 
  88.800000   425.000000     0.002353   295.371095     0.000000 
  88.820000   445.000000     0.002247   300.552882     0.000000 
  88.840000   417.000000     0.002398   304.426184     0.000000 
  88.860000   401.000000     0.002494   306.795032     0.000000 
  88.880000   331.000000     0.003021   307.332289     0.000000 
  88.900000   334.000000     0.002994   306.029549     0.000000 
  88.920000   308.000000     0.003247   302.927962     0.000000 
  88.940000   287.000000     0.003484   298.180975     0.000000 
  88.960000   265.000000     0.003774   292.029647     0.000000 
  88.980000   267.000000     0.003745   284.767898     0.000000 
  89.000000   261.000000     0.003831   276.706476     0.000000 
  89.020000   243.000000     0.004115   268.142838     0.000000 
  89.040000   242.000000     0.004132   259.340720     0.000000 
  89.060000   266.000000     0.003759   250.519687     0.000000 
  89.080000   275.000000     0.003636   241.852811     0.000000 
  89.100000   298.000000     0.003356   233.469696     0.000000 
  89.120000   266.000000     0.003759   225.462302     0.000000 
  89.140000   255.000000     0.003922   217.891684     0.000000 
  89.160000   263.000000     0.003802   210.794445     0.000000 
  89.180000   241.000000     0.004149   204.188364     0.000000 
  89.200000   205.000000     0.004878   198.077004     0.000000 
  89.220000   189.000000     0.005291   192.453352     0.000000 
  89.240000   214.000000     0.004673   187.302641     0.000000 
  89.260000   171.000000     0.005848   182.604537     0.000000 
  89.280000   173.000000     0.005780   178.334820     0.000000 
  89.300000   176.000000     0.005682   174.466719     0.000000 
  89.320000   179.000000     0.005587   170.971970     0.000000 
  89.340000   178.000000     0.005618   167.821668     0.000000 
  89.360000   172.000000     0.005814   164.986962     0.000000 
  89.380000   172.000000     0.005814   162.439550     0.000000 
  89.400000   125.000000     0.008000   160.152383     0.000000 
  89.420000   151.000000     0.006623   158.099614     0.000000 
  89.440000   161.000000     0.006211   156.257106     0.000000 
  89.460000   164.000000     0.006098   154.602532     0.000000 
  89.480000   151.000000     0.006623   153.115463     0.000000 
  89.500000   161.000000     0.006211   151.777392     0.000000 
  89.520000   153.000000     0.006536   150.571758     0.000000 
  89.540000   162.000000     0.006173   149.484064     0.000000 
  89.560000   131.000000     0.007634   148.500512     0.000000 
  89.580000   137.000000     0.007299   147.610015     0.000000 
  89.600000   139.000000     0.007194   146.802550     0.000000 
  89.620000   134.000000     0.007463   146.069398     0.000000 
  89.640000   145.000000     0.006897   145.402999     0.000000 
  89.660000   140.000000     0.007143   144.796807     0.000000 
  89.680000   149.000000     0.006711   144.245153     0.000000 
  89.700000   139.000000     0.007194   143.743118     0.000000 
  89.720000   146.000000     0.006849   143.286419     0.000000 
  89.740000   150.000000     0.006667   142.871299     0.000000 
  89.760000   120.000000     0.008333   142.494434     0.000000 
  89.780000   165.000000     0.006061   142.152847     0.000000 
  89.800000   148.000000     0.006757   141.843833     0.000000 
  89.820000   122.000000     0.008197   141.564896     0.000000 
  89.840000   150.000000     0.006667   141.313701     0.000000 
  89.860000   123.000000     0.008130   141.088046     0.000000 
  89.880000   151.000000     0.006623   140.885856     0.000000 
  89.900000   149.000000     0.006711   140.705200     0.000000 
  89.920000   125.000000     0.008000   140.544332     0.000000 
  89.940000   135.000000     0.007407   140.401744     0.000000 
  89.960000   139.000000     0.007194   140.276224     0.000000 
  89.980000   121.000000     0.008264   140.166885     0.000000 
  90.000000   154.000000     0.006494   140.073178     0.000000 
  90.020000   128.000000     0.007812   139.994852     0.000000 
  90.040000   134.000000     0.007463   139.931901     0.000000 
  90.060000   141.000000     0.007092   139.884483     0.000000 
  90.080000   120.000000     0.008333   139.852847     0.000000 
  90.100000   145.000000     0.006897   139.837276     0.000000 
  90.120000   127.000000     0.007874   139.838040     0.000000 
  90.140000   129.000000     0.007752   139.855380     0.000000 
  90.160000   123.000000     0.008130   139.889498     0.000000 
  90.180000   131.000000     0.007634   139.940568     0.000000 
  90.200000   145.000000     0.006897   140.008739     0.000000 
  90.220000   144.000000     0.006944   140.094155     0.000000 
  90.240000   128.000000     0.007812   140.196968     0.000000 
  90.260000   160.000000     0.006250   140.317345     0.000000 
  90.280000   137.000000     0.007299   140.455483     0.000000 
  90.300000   156.000000     0.006410   140.611623     0.000000 
  90.320000   142.000000     0.007042   140.786052     0.000000 
  90.340000   136.000000     0.007353   140.979116     0.000000 
  90.360000   128.000000     0.007812   141.191232     0.000000 
  90.380000   127.000000     0.007874   141.422890     0.000000 
  90.400000   134.000000     0.007463   141.674671     0.000000 
  90.420000   147.000000     0.006803   141.947251     0.000000 
  90.440000   131.000000     0.007634   142.241415     0.000000 
  90.460000   139.000000     0.007194   142.558067     0.000000 
  90.480000   143.000000     0.006993   142.898244     0.000000 
  90.500000   133.000000     0.007519   143.263127     0.000000 
  90.520000   147.000000     0.006803   143.654049     0.000000 
  90.540000   138.000000     0.007246   144.072512     0.000000 
  90.560000   140.000000     0.007143   144.520194     0.000000 
  90.580000   168.000000     0.005952   144.998958     0.000000 
  90.600000   136.000000     0.007353   145.510860     0.000000 
  90.620000   149.000000     0.006711   146.058152     0.000000 
  90.640000   156.000000     0.006410   146.643277     0.000000 
  90.660000   144.000000     0.006944   147.268876     0.000000 
  90.680000   141.000000     0.007092   147.937775     0.000000 
  90.700000   149.000000     0.006711   148.652970     0.000000 
  90.720000   136.000000     0.007353   149.417614     0.000000 
  90.740000   148.000000     0.006757   150.234990     0.000000 
  90.760000   138.000000     0.007246   151.108484     0.000000 
  90.780000   168.000000     0.005952   152.041544     0.000000 
  90.800000   142.000000     0.007042   153.037642     0.000000 
  90.820000   147.000000     0.006803   154.100211     0.000000 
  90.840000   145.000000     0.006897   155.232582     0.000000 
  90.860000   152.000000     0.006579   156.437897     0.000000 
  90.880000   144.000000     0.006944   157.719003     0.000000 
  90.900000   138.000000     0.007246   159.078308     0.000000 
  90.920000   142.000000     0.007042   160.517608     0.000000 
  90.940000   150.000000     0.006667   162.037860     0.000000 
  90.960000   159.000000     0.006289   163.638894     0.000000 
  90.980000   157.000000     0.006369   165.319090     0.000000 
  91.000000   132.000000     0.007576   167.074998     0.000000 
  91.020000   161.000000     0.006211   168.900972     0.000000 
  91.040000   155.000000     0.006452   170.788877     0.000000 
  91.060000   163.000000     0.006135   172.727990     0.000000 
  91.080000   146.000000     0.006849   174.705234     0.000000 
  91.100000   171.000000     0.005848   176.705916     0.000000 
  91.120000   155.000000     0.006452   178.715071     0.000000 
  91.140000   181.000000     0.005525   180.719428     0.000000 
  91.160000   173.000000     0.005780   182.676928     0.000000 
  91.180000   178.000000     0.005618   184.650883     0.000000 
  91.200000   161.000000     0.006211   186.614177     0.000000 
  91.220000   168.000000     0.005952   188.582485     0.000000 
  91.240000   171.000000     0.005848   190.581220     0.000000 
  91.260000   164.000000     0.006098   192.644489     0.000000 
  91.280000   185.000000     0.005405   194.813341     0.000000 
  91.300000   176.000000     0.005682   197.133812     0.000000 
  91.320000   178.000000     0.005618   199.655203     0.000000 
  91.340000   191.000000     0.005236   202.428881     0.000000 
  91.360000   180.000000     0.005556   205.507688     0.000000 
  91.380000   185.000000     0.005405   208.945870     0.000000 
  91.400000   226.000000     0.004425   212.799389     0.000000 
  91.420000   191.000000     0.005236   217.126415     0.000000 
  91.440000   196.000000     0.005102   221.987868     0.000000 
  91.460000   215.000000     0.004651   227.447868     0.000000 
  91.480000   199.000000     0.005025   233.574033     0.000000 
  91.500000   214.000000     0.004673   240.437559     0.000000 
  91.520000   200.000000     0.005000   248.113060     0.000000 
  91.540000   212.000000     0.004717   256.678149     0.000000 
  91.560000   217.000000     0.004608   266.078319     0.000000 
  91.580000   239.000000     0.004184   276.664465     0.000000 
  91.600000   235.000000     0.004255   288.382750     0.000000 
  91.620000   226.000000     0.004425   301.313054     0.000000 
  91.640000   255.000000     0.003922   315.531864     0.000000 
  91.660000   252.000000     0.003968   331.109949     0.000000 
  91.680000   277.000000     0.003610   348.109542     0.000000 
  91.700000   301.000000     0.003322   366.580875     0.000000 
  91.720000   286.000000     0.003497   386.557882     0.000000 
  91.740000   314.000000     0.003185   408.052788     0.000000 
  91.760000   367.000000     0.002725   431.049288     0.000000 
  91.780000   400.000000     0.002500   455.493921     0.000000 
  91.800000   374.000000     0.002674   481.285347     0.000000 
  91.820000   426.000000     0.002347   508.261382     0.000000 
  91.840000   457.000000     0.002188   536.183933     0.000000 
  91.860000   555.000000     0.001802   564.722778     0.000000 
  91.880000   576.000000     0.001736   593.440066     0.000000 
  91.900000   640.000000     0.001563   621.778731     0.000000 
  91.920000   679.000000     0.001473   649.059577     0.000000 
  91.940000   818.000000     0.001222   674.492712     0.000000 
  91.960000   934.000000     0.001071   697.208909     0.000000 
  91.980000   946.000000     0.001057   716.314066     0.000000 
  92.000000   910.000000     0.001099   730.965044     0.000000 
  92.020000   943.000000     0.001060   740.458135     0.000000 
  92.040000   758.000000     0.001319   744.314796     0.000000 
  92.060000   758.000000     0.001319   742.345815     0.000000 
  92.080000   628.000000     0.001592   734.678054     0.000000 
  92.100000   588.000000     0.001701   721.736701     0.000000 
  92.120000   579.000000     0.001727   704.187679     0.000000 
  92.140000   524.000000     0.001908   682.854853     0.000000 
  92.160000   577.000000     0.001733   658.630702     0.000000 
  92.180000   561.000000     0.001783   632.396944     0.000000 
  92.200000   592.000000     0.001689   604.965367     0.000000 
  92.220000   557.000000     0.001795   577.041873     0.000000 
  92.240000   595.000000     0.001681   549.211407     0.000000 
  92.260000   632.000000     0.001582   521.938465     0.000000 
  92.280000   639.000000     0.001565   495.577367     0.000000 
  92.300000   662.000000     0.001511   470.387363     0.000000 
  92.320000   540.000000     0.001852   446.548962     0.000000 
  92.340000   531.000000     0.001883   424.179444     0.000000 
  92.360000   502.000000     0.001992   403.346411     0.000000 
  92.380000   432.000000     0.002315   384.079090     0.000000 
  92.400000   420.000000     0.002381   366.377517     0.000000 
  92.420000   383.000000     0.002611   350.219851     0.000000 
  92.440000   357.000000     0.002801   335.568232     0.000000 
  92.460000   325.000000     0.003077   322.373449     0.000000 
  92.480000   316.000000     0.003165   310.578749     0.000000 
  92.500000   289.000000     0.003460   300.122953     0.000000 
  92.520000   275.000000     0.003636   290.943053     0.000000 
  92.540000   274.000000     0.003650   282.976367     0.000000 
  92.560000   254.000000     0.003937   276.162328     0.000000 
  92.580000   269.000000     0.003717   270.443931     0.000000 
  92.600000   266.000000     0.003759   265.768707     0.000000 
  92.620000   257.000000     0.003891   262.090186     0.000000 
  92.640000   237.000000     0.004219   259.367481     0.000000 
  92.660000   218.000000     0.004587   257.566180     0.000000 
  92.680000   227.000000     0.004405   256.554965     0.000000 
  92.700000   267.000000     0.003745   256.518724     0.000000 
  92.720000   267.000000     0.003745   257.337125     0.000000 
  92.740000   245.000000     0.004082   258.998413     0.000000 
  92.760000   237.000000     0.004219   261.494702     0.000000 
  92.780000   230.000000     0.004348   264.820837     0.000000 
  92.800000   254.000000     0.003937   268.973051     0.000000 
  92.820000   242.000000     0.004132   273.947394     0.000000 
  92.840000   235.000000     0.004255   279.737876     0.000000 
  92.860000   255.000000     0.003922   286.334286     0.000000 
  92.880000   277.000000     0.003610   293.719565     0.000000 
  92.900000   283.000000     0.003534   301.866632     0.000000 
  92.920000   291.000000     0.003436   310.734535     0.000000 
  92.940000   276.000000     0.003623   320.263824     0.000000 
  92.960000   323.000000     0.003096   330.371116     0.000000 
  92.980000   334.000000     0.002994   340.942966     0.000000 
  93.000000   357.000000     0.002801   351.829419     0.000000 
  93.020000   358.000000     0.002793   362.838026     0.000000 
  93.040000   429.000000     0.002331   373.729570     0.000000 
  93.060000   421.000000     0.002375   384.217259     0.000000 
  93.080000   525.000000     0.001905   393.971523     0.000000 
  93.100000   534.000000     0.001873   402.632401     0.000000 
  93.120000   566.000000     0.001767   409.830639     0.000000 
  93.140000   595.000000     0.001681   415.216837     0.000000 
  93.160000   591.000000     0.001692   418.495483     0.000000 
  93.180000   515.000000     0.001942   419.458325     0.000000 
  93.200000   479.000000     0.002088   418.010175     0.000000 
  93.220000   465.000000     0.002151   414.181162     0.000000 
  93.240000   429.000000     0.002331   408.122298     0.000000 
  93.260000   378.000000     0.002646   400.085532     0.000000 
  93.280000   365.000000     0.002740   390.393088     0.000000 
  93.300000   379.000000     0.002639   379.402885     0.000000 
  93.320000   360.000000     0.002778   367.476401     0.000000 
  93.340000   353.000000     0.002833   354.953404     0.000000 
  93.360000   369.000000     0.002710   342.135338     0.000000 
  93.380000   401.000000     0.002494   329.276989     0.000000 
  93.400000   383.000000     0.002611   316.584743     0.000000 
  93.420000   419.000000     0.002387   304.219302     0.000000 
  93.440000   338.000000     0.002959   292.300874     0.000000 
  93.460000   391.000000     0.002558   280.915335     0.000000 
  93.480000   343.000000     0.002915   270.120358     0.000000 
  93.500000   363.000000     0.002755   259.950974     0.000000 
  93.520000   314.000000     0.003185   250.424311     0.000000 
  93.540000   260.000000     0.003846   241.543508     0.000000 
  93.560000   277.000000     0.003610   233.300871     0.000000 
  93.580000   265.000000     0.003774   225.680396     0.000000 
  93.600000   247.000000     0.004049   218.659783     0.000000 
  93.620000   237.000000     0.004219   212.212072     0.000000 
  93.640000   241.000000     0.004149   206.306963     0.000000 
  93.660000   210.000000     0.004762   200.911933     0.000000 
  93.680000   201.000000     0.004975   195.993149     0.000000 
  93.700000   222.000000     0.004505   191.516251     0.000000 
  93.720000   201.000000     0.004975   187.447007     0.000000 
  93.740000   189.000000     0.005291   183.751859     0.000000 
  93.760000   196.000000     0.005102   180.398365     0.000000 
  93.780000   176.000000     0.005682   177.355557     0.000000 
  93.800000   165.000000     0.006061   174.594204     0.000000 
  93.820000   158.000000     0.006329   172.087003     0.000000 
  93.840000   167.000000     0.005988   169.808697     0.000000 
  93.860000   157.000000     0.006369   167.736124     0.000000 
  93.880000   179.000000     0.005587   165.848224     0.000000 
  93.900000   165.000000     0.006061   164.125992     0.000000 
  93.920000   159.000000     0.006289   162.552392     0.000000 
  93.940000   167.000000     0.005988   161.112255     0.000000 
  93.960000   156.000000     0.006410   159.792151     0.000000 
  93.980000   170.000000     0.005882   158.580244     0.000000 
  94.000000   167.000000     0.005988   157.466156     0.000000 
  94.020000   154.000000     0.006494   156.440817     0.000000 
  94.040000   170.000000     0.005882   155.496324     0.000000 
  94.060000   162.000000     0.006173   154.625812     0.000000 
  94.080000   162.000000     0.006173   153.823323     0.000000 
  94.100000   152.000000     0.006579   153.083700     0.000000 
  94.120000   155.000000     0.006452   152.402477     0.000000 
  94.140000   140.000000     0.007143   151.775794     0.000000 
  94.160000   124.000000     0.008065   151.200315     0.000000 
  94.180000   146.000000     0.006849   150.673162     0.000000 
  94.200000   170.000000     0.005882   150.191853     0.000000 
  94.220000   134.000000     0.007463   149.754253     0.000000 
  94.240000   157.000000     0.006369   149.358534     0.000000 
  94.260000   143.000000     0.006993   149.003140     0.000000 
  94.280000   128.000000     0.007812   148.686757     0.000000 
  94.300000   144.000000     0.006944   148.408293     0.000000 
  94.320000   149.000000     0.006711   148.166858     0.000000 
  94.340000   132.000000     0.007576   147.961753     0.000000 
  94.360000   165.000000     0.006061   147.792454     0.000000 
  94.380000   143.000000     0.006993   147.658615     0.000000 
  94.400000   164.000000     0.006098   147.560055     0.000000 
  94.420000   120.000000     0.008333   147.496764     0.000000 
  94.440000   139.000000     0.007194   147.468905     0.000000 
  94.460000   142.000000     0.007042   147.476815     0.000000 
  94.480000   132.000000     0.007576   147.521021     0.000000 
  94.500000   148.000000     0.006757   147.602250     0.000000 
  94.520000   148.000000     0.006757   147.721441     0.000000 
  94.540000   158.000000     0.006329   147.879774     0.000000 
  94.560000   162.000000     0.006173   148.078689     0.000000 
  94.580000   151.000000     0.006623   148.319918     0.000000 
  94.600000   151.000000     0.006623   148.605525     0.000000 
  94.620000   148.000000     0.006757   148.937941     0.000000 
  94.640000   120.000000     0.008333   149.320021     0.000000 
  94.660000   120.000000     0.008333   149.755093     0.000000 
  94.680000   159.000000     0.006289   150.247024     0.000000 
  94.700000   144.000000     0.006944   150.800287     0.000000 
  94.720000   134.000000     0.007463   151.420036     0.000000 
  94.740000   140.000000     0.007143   152.112189     0.000000 
  94.760000   156.000000     0.006410   152.883509     0.000000 
  94.780000   137.000000     0.007299   153.741697     0.000000 
  94.800000   158.000000     0.006329   154.695473     0.000000 
  94.820000   160.000000     0.006250   155.754665     0.000000 
  94.840000   160.000000     0.006250   156.930292     0.000000 
  94.860000   174.000000     0.005747   158.234626     0.000000 
  94.880000   151.000000     0.006623   159.681258     0.000000 
  94.900000   151.000000     0.006623   161.285131     0.000000 
  94.920000   142.000000     0.007042   163.062555     0.000000 
  94.940000   162.000000     0.006173   165.031203     0.000000 
  94.960000   139.000000     0.007194   167.210057     0.000000 
  94.980000   161.000000     0.006211   169.619334     0.000000 
  95.000000   168.000000     0.005952   172.280365     0.000000 
  95.020000   168.000000     0.005952   175.215424     0.000000 
  95.040000   152.000000     0.006579   178.447521     0.000000 
  95.060000   160.000000     0.006250   182.000138     0.000000 
  95.080000   179.000000     0.005587   185.896908     0.000000 
  95.100000   174.000000     0.005747   190.161246     0.000000 
  95.120000   163.000000     0.006135   194.815904     0.000000 
  95.140000   169.000000     0.005917   199.882455     0.000000 
  95.160000   168.000000     0.005952   205.380687     0.000000 
  95.180000   151.000000     0.006623   211.327876     0.000000 
  95.200000   165.000000     0.006061   217.737916     0.000000 
  95.220000   152.000000     0.006579   224.620246     0.000000 
  95.240000   187.000000     0.005348   231.978535     0.000000 
  95.260000   191.000000     0.005236   239.809045     0.000000 
  95.280000   209.000000     0.004785   248.098621     0.000000 
  95.300000   197.000000     0.005076   256.822221     0.000000 
  95.320000   203.000000     0.004926   265.940012     0.000000 
  95.340000   238.000000     0.004202   275.394045     0.000000 
  95.360000   247.000000     0.004049   285.104698     0.000000 
  95.380000   243.000000     0.004115   294.967248     0.000000 
  95.400000   281.000000     0.003559   304.849154     0.000000 
  95.420000   318.000000     0.003145   314.588880     0.000000 
  95.440000   300.000000     0.003333   323.997337     0.000000 
  95.460000   345.000000     0.002899   332.863013     0.000000 
  95.480000   371.000000     0.002695   340.961637     0.000000 
  95.500000   397.000000     0.002519   348.070546     0.000000 
  95.520000   344.000000     0.002907   353.986829     0.000000 
  95.540000   380.000000     0.002632   358.547110     0.000000 
  95.560000   339.000000     0.002950   361.645678     0.000000 
  95.580000   318.000000     0.003145   363.247479     0.000000 
  95.600000   339.000000     0.002950   363.393037     0.000000 
  95.620000   296.000000     0.003378   362.194163     0.000000 
  95.640000   270.000000     0.003704   359.821288     0.000000 
  95.660000   321.000000     0.003115   356.485068     0.000000 
  95.680000   300.000000     0.003333   352.415767     0.000000 
  95.700000   285.000000     0.003509   347.634654     0.000000 
  95.720000   307.000000     0.003257   342.775095     0.000000 
  95.740000   276.000000     0.003623   337.813357     0.000000 
  95.760000   318.000000     0.003145   332.900779     0.000000 
  95.780000   327.000000     0.003058   328.150089     0.000000 
  95.800000   343.000000     0.002915   323.634565     0.000000 
  95.820000   369.000000     0.002710   319.389034     0.000000 
  95.840000   325.000000     0.003077   315.412103     0.000000 
  95.860000   365.000000     0.002740   311.669386     0.000000 
  95.880000   337.000000     0.002967   308.097824     0.000000 
  95.900000   347.000000     0.002882   304.611371     0.000000 
  95.920000   359.000000     0.002786   301.108321     0.000000 
  95.940000   335.000000     0.002985   297.480307     0.000000 
  95.960000   348.000000     0.002874   293.622573     0.000000 
  95.980000   295.000000     0.003390   289.444557     0.000000 
  96.000000   281.000000     0.003559   284.879406     0.000000 
  96.020000   277.000000     0.003610   279.890872     0.000000 
  96.040000   255.000000     0.003922   274.476393     0.000000 
  96.060000   233.000000     0.004292   268.665874     0.000000 
  96.080000   232.000000     0.004310   262.516575     0.000000 
  96.100000   217.000000     0.004608   256.105333     0.000000 
  96.120000   227.000000     0.004405   249.519898     0.000000 
  96.140000   240.000000     0.004167   242.850357     0.000000 
  96.160000   218.000000     0.004587   236.182391     0.000000 
  96.180000   207.000000     0.004831   229.592523     0.000000 
  96.200000   232.000000     0.004310   223.145461     0.000000 
  96.220000   257.000000     0.003891   216.893191     0.000000 
  96.240000   233.000000     0.004292   210.875356     0.000000 
  96.260000   217.000000     0.004608   205.120423     0.000000 
  96.280000   228.000000     0.004386   199.647237     0.000000 
  96.300000   187.000000     0.005348   194.466671     0.000000 
  96.320000   198.000000     0.005051   189.583183     0.000000 
  96.340000   160.000000     0.006250   184.996189     0.000000 
  96.360000   220.000000     0.004545   180.701216     0.000000 
  96.380000   193.000000     0.005181   176.690840     0.000000 
  96.400000   159.000000     0.006289   172.955435     0.000000 
  96.420000   152.000000     0.006579   169.483768     0.000000 
  96.440000   172.000000     0.005814   166.263459     0.000000 
  96.460000   154.000000     0.006494   163.281358     0.000000 
  96.480000   163.000000     0.006135   160.523843     0.000000 
  96.500000   151.000000     0.006623   157.977062     0.000000 
  96.520000   130.000000     0.007692   155.627137     0.000000 
  96.540000   170.000000     0.005882   153.460337     0.000000 
  96.560000   156.000000     0.006410   151.463219     0.000000 
  96.580000   141.000000     0.007092   149.622750     0.000000 
  96.600000   152.000000     0.006579   147.926406     0.000000 
  96.620000   162.000000     0.006173   146.362252     0.000000 
  96.640000   134.000000     0.007463   144.919005     0.000000 
  96.660000   124.000000     0.008065   143.586076     0.000000 
  96.680000   148.000000     0.006757   142.353597     0.000000 
  96.700000   149.000000     0.006711   141.212436     0.000000 
  96.720000   135.000000     0.007407   140.016354     0.000000 
  96.740000   156.000000     0.006410   139.031558     0.000000 
  96.760000   155.000000     0.006452   138.117520     0.000000 
  96.780000   131.000000     0.007634   137.265418     0.000000 
  96.800000   139.000000     0.007194   136.469565     0.000000 
  96.820000   120.000000     0.008333   135.724863     0.000000 
  96.840000   152.000000     0.006579   135.026754     0.000000 
  96.860000   142.000000     0.007042   134.371181     0.000000 
  96.880000   144.000000     0.006944   133.754538     0.000000 
  96.900000   144.000000     0.006944   133.173627     0.000000 
  96.920000   145.000000     0.006897   132.625617     0.000000 
  96.940000   118.000000     0.008475   132.108003     0.000000 
  96.960000   132.000000     0.007576   131.618568     0.000000 
  96.980000   158.000000     0.006329   131.155352     0.000000 
  97.000000   122.000000     0.008197   130.716621     0.000000 
  97.020000   115.000000     0.008696   130.300839     0.000000 
  97.040000   133.000000     0.007519   129.906642     0.000000 
  97.060000   134.000000     0.007463   129.532822     0.000000 
  97.080000   108.000000     0.009259   129.178304     0.000000 
  97.100000   130.000000     0.007692   128.842135     0.000000 
  97.120000   133.000000     0.007519   128.523464     0.000000 
  97.140000   125.000000     0.008000   128.221538     0.000000 
  97.160000   117.000000     0.008547   127.935687     0.000000 
  97.180000   117.000000     0.008547   127.665318     0.000000 
  97.200000   122.000000     0.008197   127.409908     0.000000 
  97.220000   145.000000     0.006897   127.168999     0.000000 
  97.240000   143.000000     0.006993   126.942193     0.000000 
  97.260000   138.000000     0.007246   126.729147     0.000000 
  97.280000   133.000000     0.007519   126.529574     0.000000 
  97.300000   117.000000     0.008547   126.343240     0.000000 
  97.320000   136.000000     0.007353   126.169958     0.000000 
  97.340000   131.000000     0.007634   126.009596     0.000000 
  97.360000   127.000000     0.007874   125.862068     0.000000 
  97.380000   121.000000     0.008264   125.727345     0.000000 
  97.400000   117.000000     0.008547   125.605445     0.000000 
  97.420000   133.000000     0.007519   125.496449     0.000000 
  97.440000   109.000000     0.009174   125.400490     0.000000 
  97.460000   126.000000     0.007937   125.317771     0.000000 
  97.480000   124.000000     0.008065   125.248560     0.000000 
  97.500000   118.000000     0.008475   125.193204     0.000000 
  97.520000   151.000000     0.006623   125.152130     0.000000 
  97.540000   130.000000     0.007692   125.125863     0.000000 
  97.560000   125.000000     0.008000   125.115029     0.000000 
  97.580000   147.000000     0.006803   125.120375     0.000000 
  97.600000   118.000000     0.008475   125.142776     0.000000 
  97.620000   140.000000     0.007143   125.183258     0.000000 
  97.640000   133.000000     0.007519   125.243014     0.000000 
  97.660000   146.000000     0.006849   125.323425     0.000000 
  97.680000   136.000000     0.007353   125.426078     0.000000 
  97.700000   117.000000     0.008547   125.552797     0.000000 
  97.720000   108.000000     0.009259   125.705660     0.000000 
  97.740000   132.000000     0.007576   125.887032     0.000000 
  97.760000   142.000000     0.007042   126.099584     0.000000 
  97.780000   113.000000     0.008850   126.346322     0.000000 
  97.800000   122.000000     0.008197   126.630613     0.000000 
  97.820000   120.000000     0.008333   126.956203     0.000000 
  97.840000   144.000000     0.006944   127.327237     0.000000 
  97.860000   134.000000     0.007463   127.748276     0.000000 
  97.880000   139.000000     0.007194   128.224302     0.000000 
  97.900000   127.000000     0.007874   128.760719     0.000000 
  97.920000   152.000000     0.006579   129.363351     0.000000 
  97.940000   122.000000     0.008197   130.038418     0.000000 
  97.960000   113.000000     0.008850   130.792513     0.000000 
  97.980000   148.000000     0.006757   131.632246     0.000000 
  98.000000   106.000000     0.009434   132.565450     0.000000 
  98.020000   123.000000     0.008130   133.599222     0.000000 
  98.040000   122.000000     0.008197   134.741106     0.000000 
  98.060000   140.000000     0.007143   135.998674     0.000000 
  98.080000   149.000000     0.006711   137.379419     0.000000 
  98.100000   158.000000     0.006329   138.890618     0.000000 
  98.120000   132.000000     0.007576   140.539182     0.000000 
  98.140000   153.000000     0.006536   142.331486     0.000000 
  98.160000   150.000000     0.006667   144.273167     0.000000 
  98.180000   150.000000     0.006667   146.368892     0.000000 
  98.200000   133.000000     0.007519   148.622091     0.000000 
  98.220000   136.000000     0.007353   151.034630     0.000000 
  98.240000   153.000000     0.006536   153.606427     0.000000 
  98.260000   128.000000     0.007812   156.334985     0.000000 
  98.280000   140.000000     0.007143   159.214829     0.000000 
  98.300000   141.000000     0.007092   162.236830     0.000000 
  98.320000   168.000000     0.005952   165.387410     0.000000 
  98.340000   152.000000     0.006579   168.647628     0.000000 
  98.360000   161.000000     0.006211   171.992182     0.000000 
  98.380000   163.000000     0.006135   175.388383     0.000000 
  98.400000   192.000000     0.005208   178.795213     0.000000 
  98.420000   196.000000     0.005102   182.162631     0.000000 
  98.440000   189.000000     0.005291   185.431381     0.000000 
  98.460000   208.000000     0.004808   188.533532     0.000000 
  98.480000   224.000000     0.004464   191.394073     0.000000 
  98.500000   236.000000     0.004237   193.933740     0.000000 
  98.520000   244.000000     0.004098   196.073151     0.000000 
  98.540000   248.000000     0.004032   197.738024     0.000000 
  98.560000   241.000000     0.004149   198.865009     0.000000 
  98.580000   235.000000     0.004255   199.407325     0.000000 
  98.600000   211.000000     0.004739   199.339313     0.000000 
  98.620000   196.000000     0.005102   198.659075     0.000000 
  98.640000   188.000000     0.005319   197.388663     0.000000 
  98.660000   194.000000     0.005155   195.571810     0.000000 
  98.680000   191.000000     0.005236   193.269628     0.000000 
  98.700000   167.000000     0.005988   190.555067     0.000000 
  98.720000   167.000000     0.005988   187.507071     0.000000 
  98.740000   176.000000     0.005682   184.205216     0.000000 
  98.760000   178.000000     0.005618   180.725388     0.000000 
  98.780000   186.000000     0.005376   177.136746     0.000000 
  98.800000   168.000000     0.005952   173.499957     0.000000 
  98.820000   186.000000     0.005376   169.866491     0.000000 
  98.840000   174.000000     0.005747   166.278735     0.000000 
  98.860000   202.000000     0.004950   162.770615     0.000000 
  98.880000   202.000000     0.004950   159.368515     0.000000 
  98.900000   175.000000     0.005714   156.092295     0.000000 
  98.920000   185.000000     0.005405   152.956302     0.000000 
  98.940000   181.000000     0.005525   149.970297     0.000000 
  98.960000   182.000000     0.005495   147.140270     0.000000 
  98.980000   149.000000     0.006711   144.469129     0.000000 
  99.000000   153.000000     0.006536   141.957287     0.000000 
  99.020000   142.000000     0.007042   139.603131     0.000000 
  99.040000   126.000000     0.007937   137.403428     0.000000 
  99.060000   139.000000     0.007194   135.353647     0.000000 
  99.080000   141.000000     0.007092   133.448245     0.000000 
  99.100000   125.000000     0.008000   131.680892     0.000000 
  99.120000   128.000000     0.007812   130.044678     0.000000 
  99.140000   123.000000     0.008130   128.532287     0.000000 
  99.160000   148.000000     0.006757   127.136144     0.000000 
  99.180000   132.000000     0.007576   125.848552     0.000000 
  99.200000   139.000000     0.007194   124.661796     0.000000 
  99.220000   119.000000     0.008403   123.568244     0.000000 
  99.240000   130.000000     0.007692   122.560423     0.000000 
  99.260000   118.000000     0.008475   121.631083     0.000000 
  99.280000   100.000000     0.010000   120.773247     0.000000 
  99.300000   147.000000     0.006803   119.980248     0.000000 
  99.320000   122.000000     0.008197   119.245760     0.000000 
  99.340000   123.000000     0.008130   118.563816     0.000000 
  99.360000   125.000000     0.008000   117.928825     0.000000 
  99.380000   130.000000     0.007692   117.335592     0.000000 
  99.400000   117.000000     0.008547   116.779326     0.000000 
  99.420000   140.000000     0.007143   116.255658     0.000000 
  99.440000   136.000000     0.007353   115.748940     0.000000 
  99.460000   127.000000     0.007874   115.279172     0.000000 
  99.480000   110.000000     0.009091   114.831545     0.000000 
  99.500000   124.000000     0.008065   114.403461     0.000000 
  99.520000   141.000000     0.007092   113.992742     0.000000 
  99.540000   145.000000     0.006897   113.597594     0.000000 
  99.560000   125.000000     0.008000   113.216559     0.000000 
  99.580000   127.000000     0.007874   112.848464     0.000000 
  99.600000   145.000000     0.006897   112.492362     0.000000 
  99.620000   130.000000     0.007692   112.147482     0.000000 
  99.640000   110.000000     0.009091   111.813182     0.000000 
  99.660000   128.000000     0.007812   111.488913     0.000000 
  99.680000   125.000000     0.008000   111.174186     0.000000 
  99.700000   125.000000     0.008000   110.868556     0.000000 
  99.720000   151.000000     0.006623   110.571608     0.000000 
  99.740000   134.000000     0.007463   110.282948     0.000000 
  99.760000   129.000000     0.007752   110.002195     0.000000 
  99.780000   117.000000     0.008547   109.728983     0.000000 
  99.800000   121.000000     0.008264   109.462959     0.000000 
  99.820000   109.000000     0.009174   109.203781     0.000000 
  99.840000   122.000000     0.008197   108.951117     0.000000 
  99.860000   141.000000     0.007092   108.704648     0.000000 
  99.880000   120.000000     0.008333   108.464067     0.000000 
  99.900000   133.000000     0.007519   108.229077     0.000000 
  99.920000   147.000000     0.006803   107.999393     0.000000 
  99.940000   122.000000     0.008197   107.774741     0.000000 
  99.960000   134.000000     0.007463   107.554856     0.000000 
  99.980000   139.000000     0.007194   107.339487     0.000000 
 100.000000   110.000000     0.009091   107.128390     0.000000 
#######	End powder diffraction data	#######
