_publ_contact_author_name            'Danna Freedman'
_publ_contact_author_address         '77 Massachusetts Avenue (18-592), Cambridge, MA 02139, United States'
_publ_contact_author_email           danna@mit.edu

# start Validation Reply Form
_vrf_REFLT02_HoNdV2O8_0
;
PROBLEM: The number of reflections greater than the sigma threshold
RESPONSE: The number of reflections greater than the sigma threshold and number of symmmetry-indpendent reflections are both reported as 0.
;
_vrf_PLAT881_HoNdV2O8_0
;
PROBLEM: No Datum for _diffrn_reflns_av_R_equivalents ...     Please Do !  
RESPONSE: These values are not calculated for this powder cif.
;
# end Validation Reply Form


#######	Begin powder crystal structure	#######
data_HoNdV2O8_0

_pd_block_id	HoNdV2O8_0
_pd_block_diffractogram_id	Ho_Nd_V2_O8_raw.xy_0
_pd_phase_name
;HoNdV2O8
;
_chemical_formula_structural        'Ho Nd V2 O8'
_chemical_formula_sum               'Ho Nd V2 O8'
_chemical_formula_weight	539.05

_space_group_crystal_system	tetragonal       
_space_group_name_H-M_alt	I41/amd
_space_group_name_Hall	 'I 4bw 2bw -'
_space_group_IT_number	141
_exptl_crystal_description 'powder'
_exptl_crystal_colour 'gray'

_cell_length_a	7.22392(4)
_cell_length_b	7.22392(4)
_cell_length_c	6.36053(6)
_cell_angle_alpha	90
_cell_angle_beta	90
_cell_angle_gamma	90
_cell_volume	331.924(5)
_exptl_crystal_density_diffrn	5.39347(8)
_exptl_absorpt_coefficient_mu	102.5723(15)
_diffrn_radiation_wavelength	1.540560000
_cell_formula_units_Z	2
_cell_measurement_temperature	298.15
_diffrn_ambient_temperature	298.15
_cell_measurement_pressure	101
_cell_measurement_theta_min	5.0015
_cell_measurement_theta_max	59.9935
_cell_measurement_reflns_used 75
_diffrn_reflns_number 75
_diffrn_measured_fraction_theta_full 1

loop_
	_space_group_symop_id
	_space_group_symop_operation_xyz
	  1 'x, y, z '
	  2 '-x, y, z '
	  3 '-x+1/2, -y+1/2, z+1/2 '
	  4 '-x+1/2, y, -z-1/4 '
	  5 '-y, -x, -z '
	  6 '-y, x+1/2, z+1/4 '
	  7 '-y+1/2, -x, z-1/4 '
	  8 '-y+1/2, x+1/2, -z+1/2 '
	  9 'y, -x, -z '
	 10 'y, x+1/2, z+1/4 '
	 11 'y+1/2, -x, z-1/4 '
	 12 'y+1/2, x+1/2, -z+1/2 '
	 13 'x, -y+1/2, -z+1/4 '
	 14 '-x, -y+1/2, -z+1/4 '
	 15 'x+1/2, -y+1/2, z+1/2 '
	 16 'x+1/2, y, -z-1/4 '
	 17 'x+1/2, y+1/2, z+1/2 '
	 18 '-x+1/2, y+1/2, z+1/2 '
	 19 '-x, -y, z '
	 20 '-x, y+1/2, -z+1/4 '
	 21 '-y+1/2, -x+1/2, -z+1/2 '
	 22 '-y+1/2, x, z-1/4 '
	 23 '-y, -x+1/2, z+1/4 '
	 24 '-y, x, -z '
	 25 'y+1/2, -x+1/2, -z+1/2 '
	 26 'y+1/2, x, z-1/4 '
	 27 'y, -x+1/2, z+1/4 '
	 28 'y, x, -z '
	 29 'x+1/2, -y, -z-1/4 '
	 30 '-x+1/2, -y, -z-1/4 '
	 31 'x, -y, z '
	 32 'x, y+1/2, -z+1/4 '
loop_
	_atom_site_label
	_atom_site_type_symbol
	_atom_site_site_symmetry_multiplicity
	_atom_site_fract_x
	_atom_site_fract_y
	_atom_site_fract_z
	_atom_site_occupancy
	_atom_site_B_iso_or_equiv
Nd0 Nd   4 0 0 0.5 0.5 0
Ho0 Ho   4 0 0 0.5 0.5 0
V4 V   4 0 0.5 0.25 1 0
O23 O  16 0 0.1803(8) 0.8361(8) 1 0
loop_
	_geom_bond_atom_site_label_1
	_geom_bond_atom_site_label_2
	_geom_bond_distance
	_geom_bond_site_symmetry_1
	_geom_bond_site_symmetry_2
	Nd0       Ho0       0.00000 1_555   1_555
	Nd0       O23       2.374(6) 1_555  11_455
	Nd0       O23       2.374(6) 1_555  13_556
	Nd0       O23       2.374(6) 1_555  20_546
	Nd0       O23       2.374(6) 1_555   7_555
	Nd0       O23       2.503(5) 1_555  19_555
	Nd0       O23       2.503(5) 1_555   9_556
	Nd0       O23       2.503(5) 1_555   5_556
	Nd0       O23       2.503(5) 1_555   1_555
	Nd0       V4        3.18027(3) 1_555   7_556
	Nd0       V4        3.18027(3) 1_555   7_555
	Ho0       Nd0       0.00000 1_555   1_555
	Ho0       O23       2.374(6) 1_555  11_455
	Ho0       O23       2.374(6) 1_555  13_556
	Ho0       O23       2.374(6) 1_555  20_546
	Ho0       O23       2.374(6) 1_555   7_555
	Ho0       O23       2.503(5) 1_555  19_555
	Ho0       O23       2.503(5) 1_555   9_556
	Ho0       O23       2.503(5) 1_555   5_556
	Ho0       O23       2.503(5) 1_555   1_555
	Ho0       V4        3.18027(3) 1_555   7_556
	Ho0       V4        3.18027(3) 1_555   7_555
	V4        O23       1.668(5) 1_555  13_556
	V4        O23       1.668(5) 1_555  10_554
	V4        O23       1.668(5) 1_555   6_554
	V4        O23       1.668(5) 1_555  20_556
	V4        Ho0       3.18027(3) 1_555   6_554
	V4        Nd0       3.18027(3) 1_555   6_554
	V4        Nd0       3.18027(3) 1_555   6_555
	V4        Ho0       3.18027(3) 1_555   6_555
	O23       V4        1.668(5) 1_555   7_556
	O23       Nd0       2.374(6) 1_555   6_555
	O23       Ho0       2.374(6) 1_555   6_555
	O23       Nd0       2.503(5) 1_555   1_555
	O23       Ho0       2.503(5) 1_555   1_555
	O23       O23       2.605(11) 1_555  19_555
	O23       O23       2.782(9) 1_555   5_557
	O23       O23       2.782(9) 1_555   9_557
	O23       O23       2.868(10) 1_555  13_556
	O23       O23       3.0918(17) 1_555   6_555
	O23       O23       3.0918(17) 1_555   7_555
	O23       O23       3.0918(17) 1_555  11_455
	O23       O23       3.0918(17) 1_555  10_555
	loop_
		_geom_angle_atom_site_label_1
		_geom_angle_atom_site_label_2
		_geom_angle_atom_site_label_3
		_geom_angle
		_geom_angle_site_symmetry_1
		_geom_angle_site_symmetry_2
		_geom_angle_site_symmetry_3
	O23       Nd0       O23        93.05(6) 13_556 1_555  11_455
	O23       Nd0       O23        153.3(3) 20_546 1_555  13_556
	O23       Nd0       O23        93.05(6) 20_546 1_555  11_455
	O23       Nd0       O23        93.05(6)  7_555 1_555  20_546
	O23       Nd0       O23        93.05(6)  7_555 1_555  13_556
	O23       Nd0       O23        153.3(3)  7_555 1_555  11_455
	O23       Nd0       O23        78.64(11) 19_555 1_555   7_555
	O23       Nd0       O23        72.0(2) 19_555 1_555  20_546
	O23       Nd0       O23        134.69(15) 19_555 1_555  13_556
	O23       Nd0       O23        78.64(11) 19_555 1_555  11_455
	O23       Nd0       O23        136.83(16)  9_556 1_555  19_555
	O23       Nd0       O23        72.0(2)  9_556 1_555   7_555
	O23       Nd0       O23        78.64(11)  9_556 1_555  20_546
	O23       Nd0       O23        78.64(11)  9_556 1_555  13_556
	O23       Nd0       O23        134.69(15)  9_556 1_555  11_455
	O23       Nd0       O23        62.7(2)  5_556 1_555   9_556
	O23       Nd0       O23        136.83(16)  5_556 1_555  19_555
	O23       Nd0       O23        134.69(15)  5_556 1_555   7_555
	O23       Nd0       O23        78.64(11)  5_556 1_555  20_546
	O23       Nd0       O23        78.64(11)  5_556 1_555  13_556
	O23       Nd0       O23        72.0(2)  5_556 1_555  11_455
	O23       Nd0       O23        136.83(16)  1_555 1_555   5_556
	O23       Nd0       O23        136.83(16)  1_555 1_555   9_556
	O23       Nd0       O23        62.7(2)  1_555 1_555  19_555
	O23       Nd0       O23        78.64(11)  1_555 1_555   7_555
	O23       Nd0       O23        134.69(15)  1_555 1_555  20_546
	O23       Nd0       O23        72.0(2)  1_555 1_555  13_556
	O23       Nd0       O23        78.64(11)  1_555 1_555  11_455
	V4        Nd0       O23        31.35(12)  7_556 1_555   1_555
	V4        Nd0       O23        148.65(12)  7_556 1_555   5_556
	V4        Nd0       O23        148.65(12)  7_556 1_555   9_556
	V4        Nd0       O23        31.35(12)  7_556 1_555  19_555
	V4        Nd0       O23        76.66(13)  7_556 1_555   7_555
	V4        Nd0       O23        103.34(13)  7_556 1_555  20_546
	V4        Nd0       O23        103.34(13)  7_556 1_555  13_556
	V4        Nd0       O23        76.66(13)  7_556 1_555  11_455
	V4        Nd0       V4         180.000   7_555 1_555   7_556
	V4        Nd0       O23        148.65(12)  7_555 1_555   1_555
	V4        Nd0       O23        31.35(12)  7_555 1_555   5_556
	V4        Nd0       O23        31.35(12)  7_555 1_555   9_556
	V4        Nd0       O23        148.65(12)  7_555 1_555  19_555
	V4        Nd0       O23        103.34(13)  7_555 1_555   7_555
	V4        Nd0       O23        76.66(13)  7_555 1_555  20_546
	V4        Nd0       O23        76.66(13)  7_555 1_555  13_556
	V4        Nd0       O23        103.34(13)  7_555 1_555  11_455
	O23       Ho0       O23        93.05(6) 13_556 1_555  11_455
	O23       Ho0       O23        153.3(3) 20_546 1_555  13_556
	O23       Ho0       O23        93.05(6) 20_546 1_555  11_455
	O23       Ho0       O23        93.05(6)  7_555 1_555  20_546
	O23       Ho0       O23        93.05(6)  7_555 1_555  13_556
	O23       Ho0       O23        153.3(3)  7_555 1_555  11_455
	O23       Ho0       O23        78.64(11) 19_555 1_555   7_555
	O23       Ho0       O23        72.0(2) 19_555 1_555  20_546
	O23       Ho0       O23        134.69(15) 19_555 1_555  13_556
	O23       Ho0       O23        78.64(11) 19_555 1_555  11_455
	O23       Ho0       O23        136.83(16)  9_556 1_555  19_555
	O23       Ho0       O23        72.0(2)  9_556 1_555   7_555
	O23       Ho0       O23        78.64(11)  9_556 1_555  20_546
	O23       Ho0       O23        78.64(11)  9_556 1_555  13_556
	O23       Ho0       O23        134.69(15)  9_556 1_555  11_455
	O23       Ho0       O23        62.7(2)  5_556 1_555   9_556
	O23       Ho0       O23        136.83(16)  5_556 1_555  19_555
	O23       Ho0       O23        134.69(15)  5_556 1_555   7_555
	O23       Ho0       O23        78.64(11)  5_556 1_555  20_546
	O23       Ho0       O23        78.64(11)  5_556 1_555  13_556
	O23       Ho0       O23        72.0(2)  5_556 1_555  11_455
	O23       Ho0       O23        136.83(16)  1_555 1_555   5_556
	O23       Ho0       O23        136.83(16)  1_555 1_555   9_556
	O23       Ho0       O23        62.7(2)  1_555 1_555  19_555
	O23       Ho0       O23        78.64(11)  1_555 1_555   7_555
	O23       Ho0       O23        134.69(15)  1_555 1_555  20_546
	O23       Ho0       O23        72.0(2)  1_555 1_555  13_556
	O23       Ho0       O23        78.64(11)  1_555 1_555  11_455
	V4        Ho0       O23        31.35(12)  7_556 1_555   1_555
	V4        Ho0       O23        148.65(12)  7_556 1_555   5_556
	V4        Ho0       O23        148.65(12)  7_556 1_555   9_556
	V4        Ho0       O23        31.35(12)  7_556 1_555  19_555
	V4        Ho0       O23        76.66(13)  7_556 1_555   7_555
	V4        Ho0       O23        103.34(13)  7_556 1_555  20_546
	V4        Ho0       O23        103.34(13)  7_556 1_555  13_556
	V4        Ho0       O23        76.66(13)  7_556 1_555  11_455
	V4        Ho0       V4         180.000   7_555 1_555   7_556
	V4        Ho0       O23        148.65(12)  7_555 1_555   1_555
	V4        Ho0       O23        31.35(12)  7_555 1_555   5_556
	V4        Ho0       O23        31.35(12)  7_555 1_555   9_556
	V4        Ho0       O23        148.65(12)  7_555 1_555  19_555
	V4        Ho0       O23        103.34(13)  7_555 1_555   7_555
	V4        Ho0       O23        76.66(13)  7_555 1_555  20_546
	V4        Ho0       O23        76.66(13)  7_555 1_555  13_556
	V4        Ho0       O23        103.34(13)  7_555 1_555  11_455
	O23       V4        O23        112.99(19) 10_554 1_555  13_556
	O23       V4        O23        102.6(4)  6_554 1_555  10_554
	O23       V4        O23        112.99(19)  6_554 1_555  13_556
	O23       V4        O23        112.99(19) 20_556 1_555   6_554
	O23       V4        O23        112.99(19) 20_556 1_555  10_554
	O23       V4        O23        102.6(4) 20_556 1_555  13_556
	Ho0       V4        O23        128.68(19)  6_554 1_555  20_556
	Ho0       V4        O23        51.32(19)  6_554 1_555   6_554
	Ho0       V4        O23        51.32(19)  6_554 1_555  10_554
	Ho0       V4        O23        128.68(19)  6_554 1_555  13_556
	Nd0       V4        Ho0        0.000     6_554 1_555   6_554
	Nd0       V4        O23        128.68(19)  6_554 1_555  20_556
	Nd0       V4        O23        51.32(19)  6_554 1_555   6_554
	Nd0       V4        O23        51.32(19)  6_554 1_555  10_554
	Nd0       V4        O23        128.68(19)  6_554 1_555  13_556
	Nd0       V4        Nd0        180.000   6_555 1_555   6_554
	Nd0       V4        Ho0        180.000   6_555 1_555   6_554
	Nd0       V4        O23        51.32(19)  6_555 1_555  20_556
	Nd0       V4        O23        128.68(19)  6_555 1_555   6_554
	Nd0       V4        O23        128.68(19)  6_555 1_555  10_554
	Nd0       V4        O23        51.32(19)  6_555 1_555  13_556
	Ho0       V4        Nd0        0.000     6_555 1_555   6_555
	Ho0       V4        Nd0        180.000   6_555 1_555   6_554
	Ho0       V4        Ho0        180.000   6_555 1_555   6_554
	Ho0       V4        O23        51.32(19)  6_555 1_555  20_556
	Ho0       V4        O23        128.68(19)  6_555 1_555   6_554
	Ho0       V4        O23        128.68(19)  6_555 1_555  10_554
	Ho0       V4        O23        51.32(19)  6_555 1_555  13_556
	Nd0       O23       V4         154.7(3)  6_555 1_555   7_556
	Ho0       O23       Nd0        0.000     6_555 1_555   6_555
	Ho0       O23       V4         154.7(3)  6_555 1_555   7_556
	Nd0       O23       Ho0        108.0(2)  1_555 1_555   6_555
	Nd0       O23       Nd0        108.0(2)  1_555 1_555   6_555
	Nd0       O23       V4         97.3(2)  1_555 1_555   7_556
	Ho0       O23       Nd0        0.000     1_555 1_555   1_555
	Ho0       O23       Ho0        108.0(2)  1_555 1_555   6_555
	Ho0       O23       Nd0        108.0(2)  1_555 1_555   6_555
	Ho0       O23       V4         97.3(2)  1_555 1_555   7_556
	O23       O23       Ho0        58.65(12) 19_555 1_555   1_555
	O23       O23       Nd0        58.65(12) 19_555 1_555   1_555
	O23       O23       Ho0        166.66(13) 19_555 1_555   6_555
	O23       O23       Nd0        166.66(13) 19_555 1_555   6_555
	O23       O23       V4         38.68(19) 19_555 1_555   7_556
	O23       O23       O23        62.09(11)  5_557 1_555  19_555
	O23       O23       Ho0        113.4(2)  5_557 1_555   1_555
	O23       O23       Nd0        113.4(2)  5_557 1_555   1_555
	O23       O23       Ho0        128.93(18)  5_557 1_555   6_555
	O23       O23       Nd0        128.93(18)  5_557 1_555   6_555
	O23       O23       V4         33.51(10)  5_557 1_555   7_556
	O23       O23       O23        55.8(2)  9_557 1_555   5_557
	O23       O23       O23        62.09(11)  9_557 1_555  19_555
	O23       O23       Ho0        113.4(2)  9_557 1_555   1_555
	O23       O23       Nd0        113.4(2)  9_557 1_555   1_555
	O23       O23       Ho0        128.93(18)  9_557 1_555   6_555
	O23       O23       Nd0        128.93(18)  9_557 1_555   6_555
	O23       O23       V4         33.51(10)  9_557 1_555   7_556
	O23       O23       O23        150.0(3) 13_556 1_555   9_557
	O23       O23       O23        150.0(3) 13_556 1_555   5_557
	O23       O23       O23        110.6(2) 13_556 1_555  19_555
	O23       O23       Ho0        51.91(17) 13_556 1_555   1_555
	O23       O23       Nd0        51.91(17) 13_556 1_555   1_555
	O23       O23       Ho0        56.10(19) 13_556 1_555   6_555
	O23       O23       Nd0        56.10(19) 13_556 1_555   6_555
	O23       O23       V4         149.2(4) 13_556 1_555   7_556
	O23       O23       O23        102.7(2)  6_555 1_555  13_556
	O23       O23       O23        99.29(19)  6_555 1_555   9_557
	O23       O23       O23        76.53(9)  6_555 1_555   5_557
	O23       O23       O23        138.33(12)  6_555 1_555  19_555
	O23       O23       Ho0        145.88(4)  6_555 1_555   1_555
	O23       O23       Nd0        145.88(4)  6_555 1_555   1_555
	O23       O23       Ho0        52.54(17)  6_555 1_555   6_555
	O23       O23       Nd0        52.54(17)  6_555 1_555   6_555
	O23       O23       V4         105.18(13)  6_555 1_555   7_556
	O23       O23       O23        153.4(3)  7_555 1_555   6_555
	O23       O23       O23        70.51(12)  7_555 1_555  13_556
	O23       O23       O23        80.71(19)  7_555 1_555   9_557
	O23       O23       O23        122.55(13)  7_555 1_555   5_557
	O23       O23       O23        65.09(13)  7_555 1_555  19_555
	O23       O23       Ho0        48.82(12)  7_555 1_555   1_555
	O23       O23       Nd0        48.82(12)  7_555 1_555   1_555
	O23       O23       Ho0        106.93(12)  7_555 1_555   6_555
	O23       O23       Nd0        106.93(12)  7_555 1_555   6_555
	O23       O23       V4         89.57(19)  7_555 1_555   7_556
	O23       O23       O23        96.7(2) 11_455 1_555   7_555
	O23       O23       O23        105.338(17) 11_455 1_555   6_555
	O23       O23       O23        70.51(12) 11_455 1_555  13_556
	O23       O23       O23        122.55(13) 11_455 1_555   9_557
	O23       O23       O23        80.71(19) 11_455 1_555   5_557
	O23       O23       O23        65.09(13) 11_455 1_555  19_555
	O23       O23       Ho0        48.82(12) 11_455 1_555   1_555
	O23       O23       Nd0        48.82(12) 11_455 1_555   1_555
	O23       O23       Ho0        106.93(12) 11_455 1_555   6_555
	O23       O23       Nd0        106.93(12) 11_455 1_555   6_555
	O23       O23       V4         89.57(19) 11_455 1_555   7_556
	O23       O23       O23        153.4(3) 10_555 1_555  11_455
	O23       O23       O23        105.338(17) 10_555 1_555   7_555
	O23       O23       O23        49.8(3) 10_555 1_555   6_555
	O23       O23       O23        102.7(2) 10_555 1_555  13_556
	O23       O23       O23        76.53(9) 10_555 1_555   9_557
	O23       O23       O23        99.29(19) 10_555 1_555   5_557
	O23       O23       O23        138.33(12) 10_555 1_555  19_555
	O23       O23       Ho0        145.88(4) 10_555 1_555   1_555
	O23       O23       Nd0        145.88(4) 10_555 1_555   1_555
	O23       O23       Ho0        52.54(17) 10_555 1_555   6_555
	O23       O23       Nd0        52.54(17) 10_555 1_555   6_555
	O23       O23       V4         105.18(13) 10_555 1_555   7_556
#######	End powder crystal structure	#######


#######	Begin powder diffraction data	#######
data_Ho_Nd_V2_O8_raw.xy_0
_pd_block_id	Ho_Nd_V2_O8_raw.xy_0
_pd_calc_method	Rietveld
_computing_cell_refinement	'Topas 6'
_computing_structure_refinement	'Topas 6'
_diffrn_radiation_probe	x-ray
_diffrn_radiation_wavelength	1.540560000
_refine_ls_goodness_of_fit_all	3.83784
_pd_proc_ls_prof_R_factor	0.10304
_pd_proc_ls_prof_wR_factor	0.15628
_pd_proc_ls_prof_wR_expected	0.04072
loop_
	_pd_phase_id
	_pd_phase_block_id
	_pd_phase_mass_%
1	HoNdV2O8_0	100
loop_
	_refln_index_h
	_refln_index_k
	_refln_index_l
	_pd_refln_phase_id
	_refln_d_spacing
	_refln_F_squared_calc
	_refln_F_squared_meas
   0    0    4 1    1.590133    11.162364    12.355804
   1    0    1 1    4.773794     8.783900     7.330720
   1    0    3 1    2.034367    19.036989    23.297685
   1    0    5 1    1.252829     2.254571     2.437881
   1    0    7 1    0.901543     1.421999     1.406898
   1    1    2 1    2.699774    86.400720    80.504131
   1    1    6 1    1.037972    46.124984    51.523334
   2    0    0 1    3.611958    67.034395    63.356300
   2    0    2 1    2.386897     6.679811     7.137255
   2    0    4 1    1.455343    55.593918    68.772505
   2    0    6 1    1.017184     0.018154     0.017915
   2    1    1 1    2.880385     8.149146     7.565426
   2    1    3 1    1.772551    12.643348    13.977503
   2    1    5 1    1.183649    16.198034    17.149216
   2    2    0 1    2.554040    28.414485    28.259199
   2    2    4 1    1.349887    65.597426    75.640036
   3    0    1 1    2.251992    24.163579    31.479092
   3    0    3 1    1.591265     6.167176     6.504740
   3    0    5 1    1.124794     1.168938     1.169493
   3    1    2 1    1.855361   165.829462   206.510035
   3    1    4 1    1.305085     2.870868     2.839838
   3    1    6 1    0.961594    58.293498    64.998182
   3    2    1 1    1.910988    30.727368    37.841061
   3    2    3 1    1.456211     2.809889     3.299208
   3    2    5 1    1.073926    10.186731    10.599420
   3    3    2 1    1.501090    79.272351    92.750285
   3    3    6 1    0.899925    17.812937    18.899486
   4    0    0 1    1.805979    47.923018    64.488418
   4    0    2 1    1.570430     1.736310     1.660272
   4    0    4 1    1.193448    40.386157    51.685406
   4    0    6 1    0.914224     0.007548     0.007622
   4    1    1 1    1.689145     8.154216     9.596880
   4    1    3 1    1.350579    12.959126    14.312853
   4    1    5 1    1.029389     9.861807     9.800126
   4    2    0 1    1.615317    50.481552    62.001629
   4    2    2 1    1.440192     0.439706     0.447031
   4    2    4 1    1.133193    96.062861   107.960956
   4    3    1 1    1.408893    22.885769    26.396093
   4    3    3 1    1.193927     4.152359     5.016233
   4    3    5 1    0.954759     6.181993     6.285445
   4    4    0 1    1.277020    22.643444    24.696179
   4    4    4 1    0.995682    37.113549    38.061155
   5    0    1 1    1.408893     3.254222     3.753370
   5    0    3 1    1.193927    11.225345    13.560715
   5    0    5 1    0.954759     2.008069     2.041673
   5    1    2 1    1.294126    86.201406   104.908374
   5    1    4 1    1.057792     0.141101     0.146027
   5    2    1 1    1.312574     3.796665     3.903157
   5    2    3 1    1.133602    10.252692    11.061203
   5    2    5 1    0.923055    11.704559    11.597937
   5    3    2 1    1.154392    89.321645   100.393180
   5    3    4 1    0.977289     2.487172     2.571423
   5    4    1 1    1.110847     3.973158     4.042054
   5    4    3 1    0.995960    10.484315    10.400366
   5    5    2 1    0.972662    27.912296    32.438941
   6    0    0 1    1.203986    36.586590    42.921832
   6    0    2 1    1.125996     0.010013     0.009850
   6    0    4 1    0.959879    25.324777    27.776257
   6    1    1 1    1.167429     7.816876     8.059982
   6    1    3 1    1.036128    14.429083    15.037667
   6    2    0 1    1.142201    45.855540    51.060116
   6    2    2 1    1.074973     2.490883     2.470366
   6    2    4 1    0.927680    61.266616    68.249633
   6    3    1 1    1.061768    17.316499    17.674389
   6    3    3 1    0.960128     6.360571     6.979471
   6    4    0 1    1.001777    42.094910    45.039054
   6    4    2 1    0.955494     0.938470     0.948622
   6    5    1 1    0.915301     4.069662     4.140761
   7    0    1 1    1.018667     4.850755     4.836471
   7    0    3 1    0.927905     5.045696     5.551732
   7    1    2 1    0.972662    65.363658    75.963935
   7    2    1 1    0.980422     6.846956     6.852851
   7    2    3 1    0.898722     4.296280     4.352395
   7    3    2 1    0.908977    68.775116    81.305133
   8    0    0 1    0.902989    15.387825    15.448877
loop_
	_pd_meas_2theta_scan
	_pd_proc_intensity_total
	_pd_proc_ls_weight
	_pd_calc_intensity_total
	_pd_proc_intensity_bkg_calc
  10.003000   463.000000     0.002160   458.192162     0.000000 
  10.011000   420.000000     0.002381   458.198453     0.000000 
  10.019000   431.000000     0.002320   458.204747     0.000000 
  10.027000   449.000000     0.002227   458.211043     0.000000 
  10.035000   469.000000     0.002132   458.217343     0.000000 
  10.043000   422.000000     0.002370   458.223646     0.000000 
  10.051000   478.000000     0.002092   458.229952     0.000000 
  10.059000   479.000000     0.002088   458.236260     0.000000 
  10.067000   422.000000     0.002370   458.242572     0.000000 
  10.075000   480.000000     0.002083   458.248887     0.000000 
  10.083000   478.000000     0.002092   458.255204     0.000000 
  10.091000   435.000000     0.002299   458.261525     0.000000 
  10.099000   417.000000     0.002398   458.267848     0.000000 
  10.107000   449.000000     0.002227   458.274175     0.000000 
  10.115000   471.000000     0.002123   458.280504     0.000000 
  10.123000   462.000000     0.002165   458.286836     0.000000 
  10.131000   497.000000     0.002012   458.293171     0.000000 
  10.139000   516.000000     0.001938   458.299509     0.000000 
  10.147000   477.000000     0.002096   458.305850     0.000000 
  10.155000   459.000000     0.002179   458.312194     0.000000 
  10.163000   412.000000     0.002427   458.318541     0.000000 
  10.171000   487.000000     0.002053   458.324891     0.000000 
  10.179000   503.000000     0.001988   458.331243     0.000000 
  10.187000   459.000000     0.002179   458.337599     0.000000 
  10.195000   424.000000     0.002358   458.343957     0.000000 
  10.203000   491.000000     0.002037   458.350319     0.000000 
  10.211000   458.000000     0.002183   458.356683     0.000000 
  10.219000   511.000000     0.001957   458.363050     0.000000 
  10.227000   510.000000     0.001961   458.369420     0.000000 
  10.235000   467.000000     0.002141   458.375793     0.000000 
  10.243000   412.000000     0.002427   458.382168     0.000000 
  10.251000   420.000000     0.002381   458.388547     0.000000 
  10.259000   441.000000     0.002268   458.394928     0.000000 
  10.267000   492.000000     0.002033   458.401312     0.000000 
  10.275000   487.000000     0.002053   458.407699     0.000000 
  10.283000   486.000000     0.002058   458.414089     0.000000 
  10.291000   500.000000     0.002000   458.420482     0.000000 
  10.299000   486.000000     0.002058   458.426878     0.000000 
  10.307000   509.000000     0.001965   458.433276     0.000000 
  10.315000   543.000000     0.001842   458.439677     0.000000 
  10.323000   505.000000     0.001980   458.446081     0.000000 
  10.331000   425.000000     0.002353   458.452488     0.000000 
  10.339000   425.000000     0.002353   458.458898     0.000000 
  10.347000   480.000000     0.002083   458.465311     0.000000 
  10.355000   450.000000     0.002222   458.471726     0.000000 
  10.363000   477.000000     0.002096   458.478144     0.000000 
  10.371000   486.000000     0.002058   458.484565     0.000000 
  10.379000   457.000000     0.002188   458.490989     0.000000 
  10.387000   432.000000     0.002315   458.497415     0.000000 
  10.395000   437.000000     0.002288   458.503844     0.000000 
  10.403000   448.000000     0.002232   458.510276     0.000000 
  10.411000   491.000000     0.002037   458.516711     0.000000 
  10.419000   515.000000     0.001942   458.523149     0.000000 
  10.427000   473.000000     0.002114   458.529589     0.000000 
  10.435000   382.000000     0.002618   458.536032     0.000000 
  10.443000   392.000000     0.002551   458.542478     0.000000 
  10.451000   452.000000     0.002212   458.548927     0.000000 
  10.459000   486.000000     0.002058   458.555378     0.000000 
  10.467000   509.000000     0.001965   458.561833     0.000000 
  10.475000   489.000000     0.002045   458.568290     0.000000 
  10.483000   441.000000     0.002268   458.574749     0.000000 
  10.491000   411.000000     0.002433   458.581212     0.000000 
  10.499000   411.000000     0.002433   458.587677     0.000000 
  10.507000   490.000000     0.002041   458.594145     0.000000 
  10.515000   474.000000     0.002110   458.600615     0.000000 
  10.523000   470.000000     0.002128   458.607088     0.000000 
  10.531000   425.000000     0.002353   458.613564     0.000000 
  10.539000   461.000000     0.002169   458.620043     0.000000 
  10.547000   451.000000     0.002217   458.626524     0.000000 
  10.555000   487.000000     0.002053   458.633009     0.000000 
  10.563000   500.000000     0.002000   458.639495     0.000000 
  10.571000   521.000000     0.001919   458.645985     0.000000 
  10.579000   426.000000     0.002347   458.652477     0.000000 
  10.587000   503.000000     0.001988   458.658972     0.000000 
  10.595000   447.000000     0.002237   458.665470     0.000000 
  10.603000   428.000000     0.002336   458.671970     0.000000 
  10.611000   444.000000     0.002252   458.678473     0.000000 
  10.619000   462.000000     0.002165   458.684978     0.000000 
  10.627000   471.000000     0.002123   458.691487     0.000000 
  10.635000   456.000000     0.002193   458.697998     0.000000 
  10.643000   460.000000     0.002174   458.704511     0.000000 
  10.651000   464.000000     0.002155   458.711027     0.000000 
  10.659000   405.000000     0.002469   458.717546     0.000000 
  10.667000   400.000000     0.002500   458.724068     0.000000 
  10.675000   463.000000     0.002160   458.730592     0.000000 
  10.683000   516.000000     0.001938   458.737119     0.000000 
  10.691000   507.000000     0.001972   458.743648     0.000000 
  10.699000   469.000000     0.002132   458.750180     0.000000 
  10.707000   487.000000     0.002053   458.756715     0.000000 
  10.715000   479.000000     0.002088   458.763252     0.000000 
  10.723000   464.000000     0.002155   458.769792     0.000000 
  10.731000   454.000000     0.002203   458.776335     0.000000 
  10.739000   472.000000     0.002119   458.782880     0.000000 
  10.747000   451.000000     0.002217   458.789427     0.000000 
  10.755000   474.000000     0.002110   458.795978     0.000000 
  10.763000   461.000000     0.002169   458.802531     0.000000 
  10.771000   474.000000     0.002110   458.809086     0.000000 
  10.779000   469.000000     0.002132   458.815644     0.000000 
  10.787000   467.000000     0.002141   458.822205     0.000000 
  10.795000   479.000000     0.002088   458.828768     0.000000 
  10.803000   491.000000     0.002037   458.835334     0.000000 
  10.811000   513.000000     0.001949   458.841902     0.000000 
  10.819000   507.000000     0.001972   458.848473     0.000000 
  10.827000   476.000000     0.002101   458.855047     0.000000 
  10.835000   470.000000     0.002128   458.861623     0.000000 
  10.843000   445.000000     0.002247   458.868202     0.000000 
  10.851000   477.000000     0.002096   458.874783     0.000000 
  10.859000   501.000000     0.001996   458.881367     0.000000 
  10.867000   475.000000     0.002105   458.887953     0.000000 
  10.875000   454.000000     0.002203   458.894542     0.000000 
  10.883000   467.000000     0.002141   458.901133     0.000000 
  10.891000   453.000000     0.002208   458.907727     0.000000 
  10.899000   462.000000     0.002165   458.914324     0.000000 
  10.907000   494.000000     0.002024   458.920923     0.000000 
  10.915000   495.000000     0.002020   458.927524     0.000000 
  10.923000   512.000000     0.001953   458.934128     0.000000 
  10.931000   508.000000     0.001969   458.940734     0.000000 
  10.939000   537.000000     0.001862   458.947343     0.000000 
  10.947000   461.000000     0.002169   458.953955     0.000000 
  10.955000   413.000000     0.002421   458.960569     0.000000 
  10.963000   454.000000     0.002203   458.967185     0.000000 
  10.971000   477.000000     0.002096   458.973804     0.000000 
  10.979000   495.000000     0.002020   458.980426     0.000000 
  10.987000   474.000000     0.002110   458.987050     0.000000 
  10.995000   490.000000     0.002041   458.993676     0.000000 
  11.003000   517.000000     0.001934   459.000305     0.000000 
  11.011000   492.000000     0.002033   459.006936     0.000000 
  11.019000   470.000000     0.002128   459.013570     0.000000 
  11.027000   445.000000     0.002247   459.020207     0.000000 
  11.035000   438.000000     0.002283   459.026845     0.000000 
  11.043000   432.000000     0.002315   459.033486     0.000000 
  11.051000   435.000000     0.002299   459.040130     0.000000 
  11.059000   477.000000     0.002096   459.046776     0.000000 
  11.067000   479.000000     0.002088   459.053425     0.000000 
  11.075000   510.000000     0.001961   459.060076     0.000000 
  11.083000   489.000000     0.002045   459.066729     0.000000 
  11.091000   440.000000     0.002273   459.073385     0.000000 
  11.099000   403.000000     0.002481   459.080043     0.000000 
  11.107000   521.000000     0.001919   459.086704     0.000000 
  11.115000   450.000000     0.002222   459.093367     0.000000 
  11.123000   456.000000     0.002193   459.100032     0.000000 
  11.131000   424.000000     0.002358   459.106700     0.000000 
  11.139000   469.000000     0.002132   459.113371     0.000000 
  11.147000   511.000000     0.001957   459.120043     0.000000 
  11.155000   449.000000     0.002227   459.126719     0.000000 
  11.163000   410.000000     0.002439   459.133396     0.000000 
  11.171000   440.000000     0.002273   459.140076     0.000000 
  11.179000   443.000000     0.002257   459.146758     0.000000 
  11.187000   492.000000     0.002033   459.153443     0.000000 
  11.195000   510.000000     0.001961   459.160130     0.000000 
  11.203000   470.000000     0.002128   459.166819     0.000000 
  11.211000   484.000000     0.002066   459.173511     0.000000 
  11.219000   466.000000     0.002146   459.180205     0.000000 
  11.227000   454.000000     0.002203   459.186902     0.000000 
  11.235000   475.000000     0.002105   459.193601     0.000000 
  11.243000   454.000000     0.002203   459.200302     0.000000 
  11.251000   481.000000     0.002079   459.207005     0.000000 
  11.259000   476.000000     0.002101   459.213711     0.000000 
  11.267000   440.000000     0.002273   459.220420     0.000000 
  11.275000   437.000000     0.002288   459.227130     0.000000 
  11.283000   432.000000     0.002315   459.233843     0.000000 
  11.291000   444.000000     0.002252   459.240558     0.000000 
  11.299000   473.000000     0.002114   459.247276     0.000000 
  11.307000   525.000000     0.001905   459.253996     0.000000 
  11.315000   498.000000     0.002008   459.260718     0.000000 
  11.323000   405.000000     0.002469   459.267443     0.000000 
  11.331000   416.000000     0.002404   459.274169     0.000000 
  11.339000   454.000000     0.002203   459.280899     0.000000 
  11.347000   409.000000     0.002445   459.287630     0.000000 
  11.355000   498.000000     0.002008   459.294364     0.000000 
  11.363000   504.000000     0.001984   459.301100     0.000000 
  11.371000   491.000000     0.002037   459.307838     0.000000 
  11.379000   489.000000     0.002045   459.314579     0.000000 
  11.387000   395.000000     0.002532   459.321322     0.000000 
  11.395000   395.000000     0.002532   459.328067     0.000000 
  11.403000   443.000000     0.002257   459.334814     0.000000 
  11.411000   422.000000     0.002370   459.341564     0.000000 
  11.419000   463.000000     0.002160   459.348316     0.000000 
  11.427000   541.000000     0.001848   459.355070     0.000000 
  11.435000   520.000000     0.001923   459.361827     0.000000 
  11.443000   495.000000     0.002020   459.368585     0.000000 
  11.451000   453.000000     0.002208   459.375346     0.000000 
  11.459000   452.000000     0.002212   459.382109     0.000000 
  11.467000   456.000000     0.002193   459.388875     0.000000 
  11.475000   528.000000     0.001894   459.395643     0.000000 
  11.483000   403.000000     0.002481   459.402413     0.000000 
  11.491000   417.000000     0.002398   459.409185     0.000000 
  11.499000   413.000000     0.002421   459.415959     0.000000 
  11.507000   431.000000     0.002320   459.422736     0.000000 
  11.515000   420.000000     0.002381   459.429515     0.000000 
  11.523000   510.000000     0.001961   459.436296     0.000000 
  11.531000   438.000000     0.002283   459.443079     0.000000 
  11.539000   410.000000     0.002439   459.449864     0.000000 
  11.547000   405.000000     0.002469   459.456652     0.000000 
  11.555000   429.000000     0.002331   459.463442     0.000000 
  11.563000   449.000000     0.002227   459.470234     0.000000 
  11.571000   419.000000     0.002387   459.477028     0.000000 
  11.579000   403.000000     0.002481   459.483825     0.000000 
  11.587000   424.000000     0.002358   459.490623     0.000000 
  11.595000   441.000000     0.002268   459.497424     0.000000 
  11.603000   433.000000     0.002309   459.504227     0.000000 
  11.611000   421.000000     0.002375   459.511032     0.000000 
  11.619000   428.000000     0.002336   459.517840     0.000000 
  11.627000   431.000000     0.002320   459.524649     0.000000 
  11.635000   434.000000     0.002304   459.531461     0.000000 
  11.643000   467.000000     0.002141   459.538275     0.000000 
  11.651000   408.000000     0.002451   459.545091     0.000000 
  11.659000   503.000000     0.001988   459.551909     0.000000 
  11.667000   454.000000     0.002203   459.558729     0.000000 
  11.675000   513.000000     0.001949   459.565551     0.000000 
  11.683000   459.000000     0.002179   459.572376     0.000000 
  11.691000   506.000000     0.001976   459.579202     0.000000 
  11.699000   396.000000     0.002525   459.586031     0.000000 
  11.707000   378.000000     0.002646   459.592862     0.000000 
  11.715000   436.000000     0.002294   459.599695     0.000000 
  11.723000   495.000000     0.002020   459.606530     0.000000 
  11.731000   496.000000     0.002016   459.613367     0.000000 
  11.739000   501.000000     0.001996   459.620207     0.000000 
  11.747000   516.000000     0.001938   459.627048     0.000000 
  11.755000   475.000000     0.002105   459.633892     0.000000 
  11.763000   445.000000     0.002247   459.640737     0.000000 
  11.771000   450.000000     0.002222   459.647585     0.000000 
  11.779000   453.000000     0.002208   459.654435     0.000000 
  11.787000   420.000000     0.002381   459.661287     0.000000 
  11.795000   408.000000     0.002451   459.668141     0.000000 
  11.803000   462.000000     0.002165   459.674997     0.000000 
  11.811000   497.000000     0.002012   459.681855     0.000000 
  11.819000   504.000000     0.001984   459.688715     0.000000 
  11.827000   492.000000     0.002033   459.695578     0.000000 
  11.835000   464.000000     0.002155   459.702442     0.000000 
  11.843000   459.000000     0.002179   459.709308     0.000000 
  11.851000   435.000000     0.002299   459.716177     0.000000 
  11.859000   417.000000     0.002398   459.723047     0.000000 
  11.867000   443.000000     0.002257   459.729920     0.000000 
  11.875000   432.000000     0.002315   459.736794     0.000000 
  11.883000   527.000000     0.001898   459.743671     0.000000 
  11.891000   440.000000     0.002273   459.750550     0.000000 
  11.899000   535.000000     0.001869   459.757430     0.000000 
  11.907000   474.000000     0.002110   459.764313     0.000000 
  11.915000   419.000000     0.002387   459.771198     0.000000 
  11.923000   432.000000     0.002315   459.778085     0.000000 
  11.931000   433.000000     0.002309   459.784974     0.000000 
  11.939000   485.000000     0.002062   459.791864     0.000000 
  11.947000   491.000000     0.002037   459.798757     0.000000 
  11.955000   459.000000     0.002179   459.805652     0.000000 
  11.963000   434.000000     0.002304   459.812549     0.000000 
  11.971000   411.000000     0.002433   459.819448     0.000000 
  11.979000   388.000000     0.002577   459.826348     0.000000 
  11.987000   435.000000     0.002299   459.833251     0.000000 
  11.995000   487.000000     0.002053   459.840156     0.000000 
  12.003000   413.000000     0.002421   459.847063     0.000000 
  12.011000   436.000000     0.002294   459.853971     0.000000 
  12.019000   440.000000     0.002273   459.860882     0.000000 
  12.027000   482.000000     0.002075   459.867795     0.000000 
  12.035000   477.000000     0.002096   459.874709     0.000000 
  12.043000   416.000000     0.002404   459.881626     0.000000 
  12.051000   482.000000     0.002075   459.888544     0.000000 
  12.059000   454.000000     0.002203   459.895465     0.000000 
  12.067000   428.000000     0.002336   459.902387     0.000000 
  12.075000   523.000000     0.001912   459.909312     0.000000 
  12.083000   405.000000     0.002469   459.916238     0.000000 
  12.091000   451.000000     0.002217   459.923166     0.000000 
  12.099000   444.000000     0.002252   459.930097     0.000000 
  12.107000   448.000000     0.002232   459.937029     0.000000 
  12.115000   482.000000     0.002075   459.943963     0.000000 
  12.123000   466.000000     0.002146   459.950899     0.000000 
  12.131000   443.000000     0.002257   459.957837     0.000000 
  12.139000   467.000000     0.002141   459.964777     0.000000 
  12.147000   468.000000     0.002137   459.971718     0.000000 
  12.155000   459.000000     0.002179   459.978662     0.000000 
  12.163000   482.000000     0.002075   459.985608     0.000000 
  12.171000   480.000000     0.002083   459.992555     0.000000 
  12.179000   449.000000     0.002227   459.999504     0.000000 
  12.187000   444.000000     0.002252   460.006456     0.000000 
  12.195000   456.000000     0.002193   460.013409     0.000000 
  12.203000   448.000000     0.002232   460.020364     0.000000 
  12.211000   478.000000     0.002092   460.027321     0.000000 
  12.219000   439.000000     0.002278   460.034280     0.000000 
  12.227000   490.000000     0.002041   460.041240     0.000000 
  12.235000   465.000000     0.002151   460.048203     0.000000 
  12.243000   427.000000     0.002342   460.055167     0.000000 
  12.251000   440.000000     0.002273   460.062133     0.000000 
  12.259000   484.000000     0.002066   460.069101     0.000000 
  12.267000   498.000000     0.002008   460.076071     0.000000 
  12.275000   475.000000     0.002105   460.083043     0.000000 
  12.283000   437.000000     0.002288   460.090017     0.000000 
  12.291000   475.000000     0.002105   460.096992     0.000000 
  12.299000   395.000000     0.002532   460.103970     0.000000 
  12.307000   441.000000     0.002268   460.110949     0.000000 
  12.315000   466.000000     0.002146   460.117930     0.000000 
  12.323000   477.000000     0.002096   460.124913     0.000000 
  12.331000   505.000000     0.001980   460.131897     0.000000 
  12.339000   463.000000     0.002160   460.138884     0.000000 
  12.347000   461.000000     0.002169   460.145872     0.000000 
  12.355000   485.000000     0.002062   460.152862     0.000000 
  12.363000   489.000000     0.002045   460.159854     0.000000 
  12.371000   521.000000     0.001919   460.166848     0.000000 
  12.379000   528.000000     0.001894   460.173844     0.000000 
  12.387000   433.000000     0.002309   460.180841     0.000000 
  12.395000   418.000000     0.002392   460.187840     0.000000 
  12.403000   413.000000     0.002421   460.194841     0.000000 
  12.411000   525.000000     0.001905   460.201844     0.000000 
  12.419000   522.000000     0.001916   460.208848     0.000000 
  12.427000   498.000000     0.002008   460.215854     0.000000 
  12.435000   441.000000     0.002268   460.222862     0.000000 
  12.443000   417.000000     0.002398   460.229872     0.000000 
  12.451000   418.000000     0.002392   460.236884     0.000000 
  12.459000   471.000000     0.002123   460.243897     0.000000 
  12.467000   466.000000     0.002146   460.250912     0.000000 
  12.475000   494.000000     0.002024   460.257929     0.000000 
  12.483000   518.000000     0.001931   460.264948     0.000000 
  12.491000   473.000000     0.002114   460.271968     0.000000 
  12.499000   443.000000     0.002257   460.278990     0.000000 
  12.507000   457.000000     0.002188   460.286014     0.000000 
  12.515000   470.000000     0.002128   460.293040     0.000000 
  12.523000   450.000000     0.002222   460.300067     0.000000 
  12.531000   460.000000     0.002174   460.307096     0.000000 
  12.539000   471.000000     0.002123   460.314127     0.000000 
  12.547000   457.000000     0.002188   460.321159     0.000000 
  12.555000   504.000000     0.001984   460.328194     0.000000 
  12.563000   505.000000     0.001980   460.335230     0.000000 
  12.571000   425.000000     0.002353   460.342267     0.000000 
  12.579000   466.000000     0.002146   460.349307     0.000000 
  12.587000   457.000000     0.002188   460.356348     0.000000 
  12.595000   448.000000     0.002232   460.363390     0.000000 
  12.603000   468.000000     0.002137   460.370435     0.000000 
  12.611000   450.000000     0.002222   460.377481     0.000000 
  12.619000   407.000000     0.002457   460.384529     0.000000 
  12.627000   458.000000     0.002183   460.391578     0.000000 
  12.635000   397.000000     0.002519   460.398630     0.000000 
  12.643000   481.000000     0.002079   460.405683     0.000000 
  12.651000   530.000000     0.001887   460.412737     0.000000 
  12.659000   475.000000     0.002105   460.419793     0.000000 
  12.667000   471.000000     0.002123   460.426851     0.000000 
  12.675000   432.000000     0.002315   460.433911     0.000000 
  12.683000   401.000000     0.002494   460.440972     0.000000 
  12.691000   444.000000     0.002252   460.448035     0.000000 
  12.699000   418.000000     0.002392   460.455100     0.000000 
  12.707000   429.000000     0.002331   460.462166     0.000000 
  12.715000   430.000000     0.002326   460.469234     0.000000 
  12.723000   421.000000     0.002375   460.476303     0.000000 
  12.731000   486.000000     0.002058   460.483374     0.000000 
  12.739000   470.000000     0.002128   460.490447     0.000000 
  12.747000   434.000000     0.002304   460.497521     0.000000 
  12.755000   454.000000     0.002203   460.504597     0.000000 
  12.763000   431.000000     0.002320   460.511675     0.000000 
  12.771000   460.000000     0.002174   460.518754     0.000000 
  12.779000   525.000000     0.001905   460.525835     0.000000 
  12.787000   477.000000     0.002096   460.532918     0.000000 
  12.795000   477.000000     0.002096   460.540002     0.000000 
  12.803000   448.000000     0.002232   460.547087     0.000000 
  12.811000   465.000000     0.002151   460.554175     0.000000 
  12.819000   487.000000     0.002053   460.561263     0.000000 
  12.827000   480.000000     0.002083   460.568354     0.000000 
  12.835000   476.000000     0.002101   460.575446     0.000000 
  12.843000   483.000000     0.002070   460.582540     0.000000 
  12.851000   411.000000     0.002433   460.589635     0.000000 
  12.859000   449.000000     0.002227   460.596732     0.000000 
  12.867000   420.000000     0.002381   460.603830     0.000000 
  12.875000   431.000000     0.002320   460.610930     0.000000 
  12.883000   495.000000     0.002020   460.618032     0.000000 
  12.891000   467.000000     0.002141   460.625135     0.000000 
  12.899000   488.000000     0.002049   460.632239     0.000000 
  12.907000   486.000000     0.002058   460.639346     0.000000 
  12.915000   443.000000     0.002257   460.646453     0.000000 
  12.923000   463.000000     0.002160   460.653563     0.000000 
  12.931000   453.000000     0.002208   460.660674     0.000000 
  12.939000   471.000000     0.002123   460.667786     0.000000 
  12.947000   522.000000     0.001916   460.674900     0.000000 
  12.955000   443.000000     0.002257   460.682015     0.000000 
  12.963000   445.000000     0.002247   460.689132     0.000000 
  12.971000   427.000000     0.002342   460.696251     0.000000 
  12.979000   460.000000     0.002174   460.703371     0.000000 
  12.987000   438.000000     0.002283   460.710493     0.000000 
  12.995000   414.000000     0.002415   460.717616     0.000000 
  13.003000   458.000000     0.002183   460.724740     0.000000 
  13.011000   438.000000     0.002283   460.731867     0.000000 
  13.019000   411.000000     0.002433   460.738994     0.000000 
  13.027000   495.000000     0.002020   460.746123     0.000000 
  13.035000   448.000000     0.002232   460.753254     0.000000 
  13.043000   450.000000     0.002222   460.760386     0.000000 
  13.051000   438.000000     0.002283   460.767520     0.000000 
  13.059000   416.000000     0.002404   460.774655     0.000000 
  13.067000   444.000000     0.002252   460.781791     0.000000 
  13.075000   474.000000     0.002110   460.788929     0.000000 
  13.083000   469.000000     0.002132   460.796069     0.000000 
  13.091000   453.000000     0.002208   460.803210     0.000000 
  13.099000   436.000000     0.002294   460.810353     0.000000 
  13.107000   414.000000     0.002415   460.817496     0.000000 
  13.115000   466.000000     0.002146   460.824642     0.000000 
  13.123000   455.000000     0.002198   460.831789     0.000000 
  13.131000   450.000000     0.002222   460.838937     0.000000 
  13.139000   466.000000     0.002146   460.846087     0.000000 
  13.147000   463.000000     0.002160   460.853238     0.000000 
  13.155000   446.000000     0.002242   460.860391     0.000000 
  13.163000   443.000000     0.002257   460.867545     0.000000 
  13.171000   480.000000     0.002083   460.874700     0.000000 
  13.179000   476.000000     0.002101   460.881857     0.000000 
  13.187000   463.000000     0.002160   460.889016     0.000000 
  13.195000   475.000000     0.002105   460.896176     0.000000 
  13.203000   492.000000     0.002033   460.903337     0.000000 
  13.211000   438.000000     0.002283   460.910500     0.000000 
  13.219000   438.000000     0.002283   460.917664     0.000000 
  13.227000   452.000000     0.002212   460.924829     0.000000 
  13.235000   432.000000     0.002315   460.931996     0.000000 
  13.243000   466.000000     0.002146   460.939165     0.000000 
  13.251000   487.000000     0.002053   460.946334     0.000000 
  13.259000   493.000000     0.002028   460.953505     0.000000 
  13.267000   469.000000     0.002132   460.960678     0.000000 
  13.275000   441.000000     0.002268   460.967852     0.000000 
  13.283000   462.000000     0.002165   460.975027     0.000000 
  13.291000   439.000000     0.002278   460.982204     0.000000 
  13.299000   425.000000     0.002353   460.989382     0.000000 
  13.307000   471.000000     0.002123   460.996561     0.000000 
  13.315000   463.000000     0.002160   461.003742     0.000000 
  13.323000   499.000000     0.002004   461.010924     0.000000 
  13.331000   505.000000     0.001980   461.018108     0.000000 
  13.339000   459.000000     0.002179   461.025293     0.000000 
  13.347000   527.000000     0.001898   461.032479     0.000000 
  13.355000   504.000000     0.001984   461.039667     0.000000 
  13.363000   437.000000     0.002288   461.046856     0.000000 
  13.371000   511.000000     0.001957   461.054046     0.000000 
  13.379000   473.000000     0.002114   461.061238     0.000000 
  13.387000   469.000000     0.002132   461.068431     0.000000 
  13.395000   490.000000     0.002041   461.075625     0.000000 
  13.403000   488.000000     0.002049   461.082821     0.000000 
  13.411000   535.000000     0.001869   461.090018     0.000000 
  13.419000   464.000000     0.002155   461.097216     0.000000 
  13.427000   414.000000     0.002415   461.104416     0.000000 
  13.435000   387.000000     0.002584   461.111617     0.000000 
  13.443000   391.000000     0.002558   461.118819     0.000000 
  13.451000   457.000000     0.002188   461.126022     0.000000 
  13.459000   491.000000     0.002037   461.133227     0.000000 
  13.467000   515.000000     0.001942   461.140433     0.000000 
  13.475000   492.000000     0.002033   461.147641     0.000000 
  13.483000   476.000000     0.002101   461.154850     0.000000 
  13.491000   522.000000     0.001916   461.162060     0.000000 
  13.499000   483.000000     0.002070   461.169271     0.000000 
  13.507000   447.000000     0.002237   461.176484     0.000000 
  13.515000   474.000000     0.002110   461.183698     0.000000 
  13.523000   431.000000     0.002320   461.190913     0.000000 
  13.531000   456.000000     0.002193   461.198130     0.000000 
  13.539000   515.000000     0.001942   461.205347     0.000000 
  13.547000   429.000000     0.002331   461.212566     0.000000 
  13.555000   539.000000     0.001855   461.219787     0.000000 
  13.563000   474.000000     0.002110   461.227008     0.000000 
  13.571000   470.000000     0.002128   461.234231     0.000000 
  13.579000   431.000000     0.002320   461.241455     0.000000 
  13.587000   428.000000     0.002336   461.248681     0.000000 
  13.595000   514.000000     0.001946   461.255907     0.000000 
  13.603000   498.000000     0.002008   461.263135     0.000000 
  13.611000   482.000000     0.002075   461.270364     0.000000 
  13.619000   497.000000     0.002012   461.277595     0.000000 
  13.627000   478.000000     0.002092   461.284826     0.000000 
  13.635000   460.000000     0.002174   461.292059     0.000000 
  13.643000   485.000000     0.002062   461.299293     0.000000 
  13.651000   470.000000     0.002128   461.306528     0.000000 
  13.659000   498.000000     0.002008   461.313765     0.000000 
  13.667000   524.000000     0.001908   461.321002     0.000000 
  13.675000   479.000000     0.002088   461.328241     0.000000 
  13.683000   446.000000     0.002242   461.335481     0.000000 
  13.691000   411.000000     0.002433   461.342723     0.000000 
  13.699000   447.000000     0.002237   461.349965     0.000000 
  13.707000   473.000000     0.002114   461.357209     0.000000 
  13.715000   435.000000     0.002299   461.364454     0.000000 
  13.723000   513.000000     0.001949   461.371700     0.000000 
  13.731000   456.000000     0.002193   461.378947     0.000000 
  13.739000   458.000000     0.002183   461.386195     0.000000 
  13.747000   488.000000     0.002049   461.393445     0.000000 
  13.755000   469.000000     0.002132   461.400696     0.000000 
  13.763000   479.000000     0.002088   461.407948     0.000000 
  13.771000   529.000000     0.001890   461.415201     0.000000 
  13.779000   559.000000     0.001789   461.422455     0.000000 
  13.787000   511.000000     0.001957   461.429711     0.000000 
  13.795000   467.000000     0.002141   461.436968     0.000000 
  13.803000   439.000000     0.002278   461.444225     0.000000 
  13.811000   433.000000     0.002309   461.451484     0.000000 
  13.819000   468.000000     0.002137   461.458744     0.000000 
  13.827000   504.000000     0.001984   461.466006     0.000000 
  13.835000   473.000000     0.002114   461.473268     0.000000 
  13.843000   486.000000     0.002058   461.480532     0.000000 
  13.851000   482.000000     0.002075   461.487796     0.000000 
  13.859000   413.000000     0.002421   461.495062     0.000000 
  13.867000   406.000000     0.002463   461.502329     0.000000 
  13.875000   443.000000     0.002257   461.509597     0.000000 
  13.883000   462.000000     0.002165   461.516866     0.000000 
  13.891000   456.000000     0.002193   461.524137     0.000000 
  13.899000   472.000000     0.002119   461.531408     0.000000 
  13.907000   457.000000     0.002188   461.538681     0.000000 
  13.915000   473.000000     0.002114   461.545954     0.000000 
  13.923000   447.000000     0.002237   461.553229     0.000000 
  13.931000   457.000000     0.002188   461.560505     0.000000 
  13.939000   398.000000     0.002513   461.567782     0.000000 
  13.947000   491.000000     0.002037   461.575060     0.000000 
  13.955000   522.000000     0.001916   461.582339     0.000000 
  13.963000   494.000000     0.002024   461.589619     0.000000 
  13.971000   483.000000     0.002070   461.596901     0.000000 
  13.979000   503.000000     0.001988   461.604183     0.000000 
  13.987000   497.000000     0.002012   461.611466     0.000000 
  13.995000   475.000000     0.002105   461.618751     0.000000 
  14.003000   476.000000     0.002101   461.626037     0.000000 
  14.011000   480.000000     0.002083   461.633323     0.000000 
  14.019000   438.000000     0.002283   461.640611     0.000000 
  14.027000   430.000000     0.002326   461.647900     0.000000 
  14.035000   439.000000     0.002278   461.655190     0.000000 
  14.043000   456.000000     0.002193   461.662481     0.000000 
  14.051000   510.000000     0.001961   461.669773     0.000000 
  14.059000   523.000000     0.001912   461.677066     0.000000 
  14.067000   475.000000     0.002105   461.684360     0.000000 
  14.075000   431.000000     0.002320   461.691655     0.000000 
  14.083000   439.000000     0.002278   461.698951     0.000000 
  14.091000   420.000000     0.002381   461.706248     0.000000 
  14.099000   427.000000     0.002342   461.713546     0.000000 
  14.107000   442.000000     0.002262   461.720845     0.000000 
  14.115000   448.000000     0.002232   461.728146     0.000000 
  14.123000   484.000000     0.002066   461.735447     0.000000 
  14.131000   504.000000     0.001984   461.742749     0.000000 
  14.139000   460.000000     0.002174   461.750052     0.000000 
  14.147000   436.000000     0.002294   461.757357     0.000000 
  14.155000   459.000000     0.002179   461.764662     0.000000 
  14.163000   426.000000     0.002347   461.771968     0.000000 
  14.171000   473.000000     0.002114   461.779276     0.000000 
  14.179000   469.000000     0.002132   461.786584     0.000000 
  14.187000   453.000000     0.002208   461.793893     0.000000 
  14.195000   500.000000     0.002000   461.801203     0.000000 
  14.203000   492.000000     0.002033   461.808515     0.000000 
  14.211000   478.000000     0.002092   461.815827     0.000000 
  14.219000   500.000000     0.002000   461.823140     0.000000 
  14.227000   482.000000     0.002075   461.830454     0.000000 
  14.235000   443.000000     0.002257   461.837769     0.000000 
  14.243000   406.000000     0.002463   461.845086     0.000000 
  14.251000   396.000000     0.002525   461.852403     0.000000 
  14.259000   436.000000     0.002294   461.859721     0.000000 
  14.267000   449.000000     0.002227   461.867040     0.000000 
  14.275000   528.000000     0.001894   461.874360     0.000000 
  14.283000   496.000000     0.002016   461.881681     0.000000 
  14.291000   462.000000     0.002165   461.889002     0.000000 
  14.299000   498.000000     0.002008   461.896325     0.000000 
  14.307000   471.000000     0.002123   461.903649     0.000000 
  14.315000   486.000000     0.002058   461.910974     0.000000 
  14.323000   559.000000     0.001789   461.918299     0.000000 
  14.331000   435.000000     0.002299   461.925626     0.000000 
  14.339000   488.000000     0.002049   461.932953     0.000000 
  14.347000   503.000000     0.001988   461.940282     0.000000 
  14.355000   420.000000     0.002381   461.947611     0.000000 
  14.363000   432.000000     0.002315   461.954941     0.000000 
  14.371000   473.000000     0.002114   461.962272     0.000000 
  14.379000   468.000000     0.002137   461.969604     0.000000 
  14.387000   445.000000     0.002247   461.976937     0.000000 
  14.395000   477.000000     0.002096   461.984271     0.000000 
  14.403000   453.000000     0.002208   461.991606     0.000000 
  14.411000   440.000000     0.002273   461.998942     0.000000 
  14.419000   484.000000     0.002066   462.006278     0.000000 
  14.427000   484.000000     0.002066   462.013616     0.000000 
  14.435000   459.000000     0.002179   462.020954     0.000000 
  14.443000   458.000000     0.002183   462.028293     0.000000 
  14.451000   481.000000     0.002079   462.035633     0.000000 
  14.459000   475.000000     0.002105   462.042974     0.000000 
  14.467000   444.000000     0.002252   462.050316     0.000000 
  14.475000   463.000000     0.002160   462.057659     0.000000 
  14.483000   425.000000     0.002353   462.065002     0.000000 
  14.491000   477.000000     0.002096   462.072347     0.000000 
  14.499000   497.000000     0.002012   462.079692     0.000000 
  14.507000   484.000000     0.002066   462.087038     0.000000 
  14.515000   504.000000     0.001984   462.094385     0.000000 
  14.523000   488.000000     0.002049   462.101733     0.000000 
  14.531000   468.000000     0.002137   462.109082     0.000000 
  14.539000   453.000000     0.002208   462.116431     0.000000 
  14.547000   469.000000     0.002132   462.123782     0.000000 
  14.555000   448.000000     0.002232   462.131133     0.000000 
  14.563000   463.000000     0.002160   462.138485     0.000000 
  14.571000   444.000000     0.002252   462.145838     0.000000 
  14.579000   414.000000     0.002415   462.153192     0.000000 
  14.587000   459.000000     0.002179   462.160546     0.000000 
  14.595000   473.000000     0.002114   462.167902     0.000000 
  14.603000   455.000000     0.002198   462.175258     0.000000 
  14.611000   484.000000     0.002066   462.182615     0.000000 
  14.619000   507.000000     0.001972   462.189972     0.000000 
  14.627000   505.000000     0.001980   462.197331     0.000000 
  14.635000   472.000000     0.002119   462.204691     0.000000 
  14.643000   417.000000     0.002398   462.212051     0.000000 
  14.651000   414.000000     0.002415   462.219412     0.000000 
  14.659000   387.000000     0.002584   462.226773     0.000000 
  14.667000   490.000000     0.002041   462.234136     0.000000 
  14.675000   402.000000     0.002488   462.241499     0.000000 
  14.683000   484.000000     0.002066   462.248864     0.000000 
  14.691000   502.000000     0.001992   462.256229     0.000000 
  14.699000   578.000000     0.001730   462.263594     0.000000 
  14.707000   453.000000     0.002208   462.270961     0.000000 
  14.715000   456.000000     0.002193   462.278328     0.000000 
  14.723000   466.000000     0.002146   462.285696     0.000000 
  14.731000   429.000000     0.002331   462.293065     0.000000 
  14.739000   444.000000     0.002252   462.300434     0.000000 
  14.747000   487.000000     0.002053   462.307805     0.000000 
  14.755000   450.000000     0.002222   462.315176     0.000000 
  14.763000   437.000000     0.002288   462.322547     0.000000 
  14.771000   453.000000     0.002208   462.329920     0.000000 
  14.779000   458.000000     0.002183   462.337293     0.000000 
  14.787000   452.000000     0.002212   462.344667     0.000000 
  14.795000   493.000000     0.002028   462.352042     0.000000 
  14.803000   493.000000     0.002028   462.359418     0.000000 
  14.811000   420.000000     0.002381   462.366794     0.000000 
  14.819000   405.000000     0.002469   462.374171     0.000000 
  14.827000   413.000000     0.002421   462.381548     0.000000 
  14.835000   449.000000     0.002227   462.388927     0.000000 
  14.843000   454.000000     0.002203   462.396306     0.000000 
  14.851000   483.000000     0.002070   462.403686     0.000000 
  14.859000   442.000000     0.002262   462.411066     0.000000 
  14.867000   458.000000     0.002183   462.418448     0.000000 
  14.875000   471.000000     0.002123   462.425830     0.000000 
  14.883000   425.000000     0.002353   462.433212     0.000000 
  14.891000   423.000000     0.002364   462.440596     0.000000 
  14.899000   471.000000     0.002123   462.447980     0.000000 
  14.907000   419.000000     0.002387   462.455364     0.000000 
  14.915000   465.000000     0.002151   462.462750     0.000000 
  14.923000   439.000000     0.002278   462.470136     0.000000 
  14.931000   477.000000     0.002096   462.477523     0.000000 
  14.939000   483.000000     0.002070   462.484910     0.000000 
  14.947000   464.000000     0.002155   462.492298     0.000000 
  14.955000   472.000000     0.002119   462.499687     0.000000 
  14.963000   474.000000     0.002110   462.507077     0.000000 
  14.971000   440.000000     0.002273   462.514467     0.000000 
  14.979000   441.000000     0.002268   462.521857     0.000000 
  14.987000   444.000000     0.002252   462.529249     0.000000 
  14.995000   456.000000     0.002193   462.536641     0.000000 
  15.003000   450.000000     0.002222   462.544034     0.000000 
  15.011000   406.000000     0.002463   462.551427     0.000000 
  15.019000   448.000000     0.002232   462.558821     0.000000 
  15.027000   415.000000     0.002410   462.566216     0.000000 
  15.035000   469.000000     0.002132   462.573611     0.000000 
  15.043000   468.000000     0.002137   462.581007     0.000000 
  15.051000   469.000000     0.002132   462.588404     0.000000 
  15.059000   450.000000     0.002222   462.595801     0.000000 
  15.067000   455.000000     0.002198   462.603199     0.000000 
  15.075000   400.000000     0.002500   462.610598     0.000000 
  15.083000   496.000000     0.002016   462.617997     0.000000 
  15.091000   453.000000     0.002208   462.625396     0.000000 
  15.099000   454.000000     0.002203   462.632797     0.000000 
  15.107000   454.000000     0.002203   462.640198     0.000000 
  15.115000   470.000000     0.002128   462.647599     0.000000 
  15.123000   450.000000     0.002222   462.655001     0.000000 
  15.131000   486.000000     0.002058   462.662404     0.000000 
  15.139000   440.000000     0.002273   462.669807     0.000000 
  15.147000   419.000000     0.002387   462.677211     0.000000 
  15.155000   441.000000     0.002268   462.684616     0.000000 
  15.163000   436.000000     0.002294   462.692021     0.000000 
  15.171000   429.000000     0.002331   462.699427     0.000000 
  15.179000   494.000000     0.002024   462.706833     0.000000 
  15.187000   508.000000     0.001969   462.714240     0.000000 
  15.195000   448.000000     0.002232   462.721647     0.000000 
  15.203000   434.000000     0.002304   462.729055     0.000000 
  15.211000   484.000000     0.002066   462.736464     0.000000 
  15.219000   497.000000     0.002012   462.743873     0.000000 
  15.227000   459.000000     0.002179   462.751283     0.000000 
  15.235000   522.000000     0.001916   462.758693     0.000000 
  15.243000   434.000000     0.002304   462.766104     0.000000 
  15.251000   365.000000     0.002740   462.773515     0.000000 
  15.259000   444.000000     0.002252   462.780927     0.000000 
  15.267000   409.000000     0.002445   462.788339     0.000000 
  15.275000   453.000000     0.002208   462.795752     0.000000 
  15.283000   442.000000     0.002262   462.803166     0.000000 
  15.291000   479.000000     0.002088   462.810580     0.000000 
  15.299000   477.000000     0.002096   462.817995     0.000000 
  15.307000   458.000000     0.002183   462.825410     0.000000 
  15.315000   485.000000     0.002062   462.832825     0.000000 
  15.323000   452.000000     0.002212   462.840242     0.000000 
  15.331000   427.000000     0.002342   462.847658     0.000000 
  15.339000   456.000000     0.002193   462.855076     0.000000 
  15.347000   481.000000     0.002079   462.862493     0.000000 
  15.355000   485.000000     0.002062   462.869912     0.000000 
  15.363000   497.000000     0.002012   462.877330     0.000000 
  15.371000   498.000000     0.002008   462.884750     0.000000 
  15.379000   488.000000     0.002049   462.892169     0.000000 
  15.387000   493.000000     0.002028   462.899590     0.000000 
  15.395000   512.000000     0.001953   462.907010     0.000000 
  15.403000   481.000000     0.002079   462.914431     0.000000 
  15.411000   453.000000     0.002208   462.921853     0.000000 
  15.419000   455.000000     0.002198   462.929275     0.000000 
  15.427000   399.000000     0.002506   462.936698     0.000000 
  15.435000   433.000000     0.002309   462.944121     0.000000 
  15.443000   459.000000     0.002179   462.951545     0.000000 
  15.451000   431.000000     0.002320   462.958969     0.000000 
  15.459000   430.000000     0.002326   462.966394     0.000000 
  15.467000   440.000000     0.002273   462.973819     0.000000 
  15.475000   484.000000     0.002066   462.981244     0.000000 
  15.483000   432.000000     0.002315   462.988670     0.000000 
  15.491000   456.000000     0.002193   462.996096     0.000000 
  15.499000   463.000000     0.002160   463.003523     0.000000 
  15.507000   446.000000     0.002242   463.010951     0.000000 
  15.515000   441.000000     0.002268   463.018378     0.000000 
  15.523000   485.000000     0.002062   463.025807     0.000000 
  15.531000   483.000000     0.002070   463.033235     0.000000 
  15.539000   441.000000     0.002268   463.040664     0.000000 
  15.547000   441.000000     0.002268   463.048094     0.000000 
  15.555000   433.000000     0.002309   463.055524     0.000000 
  15.563000   446.000000     0.002242   463.062954     0.000000 
  15.571000   446.000000     0.002242   463.070385     0.000000 
  15.579000   453.000000     0.002208   463.077816     0.000000 
  15.587000   447.000000     0.002237   463.085248     0.000000 
  15.595000   469.000000     0.002132   463.092680     0.000000 
  15.603000   438.000000     0.002283   463.100112     0.000000 
  15.611000   476.000000     0.002101   463.107545     0.000000 
  15.619000   467.000000     0.002141   463.114979     0.000000 
  15.627000   467.000000     0.002141   463.122412     0.000000 
  15.635000   476.000000     0.002101   463.129846     0.000000 
  15.643000   440.000000     0.002273   463.137281     0.000000 
  15.651000   470.000000     0.002128   463.144716     0.000000 
  15.659000   471.000000     0.002123   463.152151     0.000000 
  15.667000   472.000000     0.002119   463.159587     0.000000 
  15.675000   468.000000     0.002137   463.167023     0.000000 
  15.683000   492.000000     0.002033   463.174459     0.000000 
  15.691000   471.000000     0.002123   463.181896     0.000000 
  15.699000   455.000000     0.002198   463.189333     0.000000 
  15.707000   499.000000     0.002004   463.196771     0.000000 
  15.715000   442.000000     0.002262   463.204208     0.000000 
  15.723000   448.000000     0.002232   463.211647     0.000000 
  15.731000   469.000000     0.002132   463.219085     0.000000 
  15.739000   489.000000     0.002045   463.226524     0.000000 
  15.747000   496.000000     0.002016   463.233964     0.000000 
  15.755000   492.000000     0.002033   463.241403     0.000000 
  15.763000   458.000000     0.002183   463.248843     0.000000 
  15.771000   468.000000     0.002137   463.256284     0.000000 
  15.779000   459.000000     0.002179   463.263725     0.000000 
  15.787000   443.000000     0.002257   463.271166     0.000000 
  15.795000   467.000000     0.002141   463.278607     0.000000 
  15.803000   502.000000     0.001992   463.286049     0.000000 
  15.811000   478.000000     0.002092   463.293491     0.000000 
  15.819000   442.000000     0.002262   463.300933     0.000000 
  15.827000   509.000000     0.001965   463.308376     0.000000 
  15.835000   439.000000     0.002278   463.315819     0.000000 
  15.843000   444.000000     0.002252   463.323262     0.000000 
  15.851000   431.000000     0.002320   463.330706     0.000000 
  15.859000   453.000000     0.002208   463.338150     0.000000 
  15.867000   468.000000     0.002137   463.345594     0.000000 
  15.875000   471.000000     0.002123   463.353039     0.000000 
  15.883000   439.000000     0.002278   463.360484     0.000000 
  15.891000   451.000000     0.002217   463.367929     0.000000 
  15.899000   434.000000     0.002304   463.375375     0.000000 
  15.907000   430.000000     0.002326   463.382820     0.000000 
  15.915000   438.000000     0.002283   463.390267     0.000000 
  15.923000   482.000000     0.002075   463.397713     0.000000 
  15.931000   478.000000     0.002092   463.405160     0.000000 
  15.939000   472.000000     0.002119   463.412607     0.000000 
  15.947000   479.000000     0.002088   463.420054     0.000000 
  15.955000   497.000000     0.002012   463.427501     0.000000 
  15.963000   489.000000     0.002045   463.434949     0.000000 
  15.971000   426.000000     0.002347   463.442397     0.000000 
  15.979000   423.000000     0.002364   463.449845     0.000000 
  15.987000   430.000000     0.002326   463.457294     0.000000 
  15.995000   459.000000     0.002179   463.464743     0.000000 
  16.003000   449.000000     0.002227   463.472192     0.000000 
  16.011000   498.000000     0.002008   463.479641     0.000000 
  16.019000   538.000000     0.001859   463.487091     0.000000 
  16.027000   510.000000     0.001961   463.494541     0.000000 
  16.035000   463.000000     0.002160   463.501991     0.000000 
  16.043000   435.000000     0.002299   463.509441     0.000000 
  16.051000   445.000000     0.002247   463.516892     0.000000 
  16.059000   398.000000     0.002513   463.524342     0.000000 
  16.067000   419.000000     0.002387   463.531793     0.000000 
  16.075000   455.000000     0.002198   463.539245     0.000000 
  16.083000   436.000000     0.002294   463.546696     0.000000 
  16.091000   451.000000     0.002217   463.554148     0.000000 
  16.099000   497.000000     0.002012   463.561600     0.000000 
  16.107000   512.000000     0.001953   463.569052     0.000000 
  16.115000   467.000000     0.002141   463.576504     0.000000 
  16.123000   423.000000     0.002364   463.583957     0.000000 
  16.131000   443.000000     0.002257   463.591409     0.000000 
  16.139000   405.000000     0.002469   463.598862     0.000000 
  16.147000   407.000000     0.002457   463.606316     0.000000 
  16.155000   400.000000     0.002500   463.613769     0.000000 
  16.163000   477.000000     0.002096   463.621223     0.000000 
  16.171000   457.000000     0.002188   463.628676     0.000000 
  16.179000   485.000000     0.002062   463.636130     0.000000 
  16.187000   484.000000     0.002066   463.643584     0.000000 
  16.195000   444.000000     0.002252   463.651039     0.000000 
  16.203000   410.000000     0.002439   463.658493     0.000000 
  16.211000   523.000000     0.001912   463.665948     0.000000 
  16.219000   483.000000     0.002070   463.673403     0.000000 
  16.227000   491.000000     0.002037   463.680858     0.000000 
  16.235000   491.000000     0.002037   463.688313     0.000000 
  16.243000   505.000000     0.001980   463.695768     0.000000 
  16.251000   376.000000     0.002660   463.703224     0.000000 
  16.259000   396.000000     0.002525   463.710680     0.000000 
  16.267000   455.000000     0.002198   463.718135     0.000000 
  16.275000   464.000000     0.002155   463.725591     0.000000 
  16.283000   471.000000     0.002123   463.733047     0.000000 
  16.291000   513.000000     0.001949   463.740504     0.000000 
  16.299000   481.000000     0.002079   463.747960     0.000000 
  16.307000   481.000000     0.002079   463.755417     0.000000 
  16.315000   460.000000     0.002174   463.762873     0.000000 
  16.323000   395.000000     0.002532   463.770330     0.000000 
  16.331000   399.000000     0.002506   463.777787     0.000000 
  16.339000   439.000000     0.002278   463.785244     0.000000 
  16.347000   465.000000     0.002151   463.792702     0.000000 
  16.355000   494.000000     0.002024   463.800159     0.000000 
  16.363000   460.000000     0.002174   463.807616     0.000000 
  16.371000   482.000000     0.002075   463.815074     0.000000 
  16.379000   464.000000     0.002155   463.822532     0.000000 
  16.387000   519.000000     0.001927   463.829990     0.000000 
  16.395000   469.000000     0.002132   463.837447     0.000000 
  16.403000   495.000000     0.002020   463.844905     0.000000 
  16.411000   441.000000     0.002268   463.852364     0.000000 
  16.419000   444.000000     0.002252   463.859822     0.000000 
  16.427000   468.000000     0.002137   463.867280     0.000000 
  16.435000   458.000000     0.002183   463.874739     0.000000 
  16.443000   439.000000     0.002278   463.882197     0.000000 
  16.451000   490.000000     0.002041   463.889656     0.000000 
  16.459000   474.000000     0.002110   463.897114     0.000000 
  16.467000   446.000000     0.002242   463.904573     0.000000 
  16.475000   488.000000     0.002049   463.912032     0.000000 
  16.483000   530.000000     0.001887   463.919491     0.000000 
  16.491000   463.000000     0.002160   463.926950     0.000000 
  16.499000   447.000000     0.002237   463.934409     0.000000 
  16.507000   526.000000     0.001901   463.941868     0.000000 
  16.515000   521.000000     0.001919   463.949327     0.000000 
  16.523000   496.000000     0.002016   463.956786     0.000000 
  16.531000   518.000000     0.001931   463.964246     0.000000 
  16.539000   435.000000     0.002299   463.971705     0.000000 
  16.547000   402.000000     0.002488   463.979165     0.000000 
  16.555000   404.000000     0.002475   463.986624     0.000000 
  16.563000   442.000000     0.002262   463.994083     0.000000 
  16.571000   423.000000     0.002364   464.001543     0.000000 
  16.579000   441.000000     0.002268   464.009003     0.000000 
  16.587000   545.000000     0.001835   464.016462     0.000000 
  16.595000   526.000000     0.001901   464.023922     0.000000 
  16.603000   455.000000     0.002198   464.031382     0.000000 
  16.611000   508.000000     0.001969   464.038841     0.000000 
  16.619000   496.000000     0.002016   464.046301     0.000000 
  16.627000   440.000000     0.002273   464.053761     0.000000 
  16.635000   488.000000     0.002049   464.061220     0.000000 
  16.643000   480.000000     0.002083   464.068680     0.000000 
  16.651000   454.000000     0.002203   464.076140     0.000000 
  16.659000   455.000000     0.002198   464.083600     0.000000 
  16.667000   482.000000     0.002075   464.091060     0.000000 
  16.675000   475.000000     0.002105   464.098520     0.000000 
  16.683000   473.000000     0.002114   464.105979     0.000000 
  16.691000   493.000000     0.002028   464.113439     0.000000 
  16.699000   467.000000     0.002141   464.120899     0.000000 
  16.707000   439.000000     0.002278   464.128359     0.000000 
  16.715000   476.000000     0.002101   464.135819     0.000000 
  16.723000   483.000000     0.002070   464.143278     0.000000 
  16.731000   449.000000     0.002227   464.150738     0.000000 
  16.739000   440.000000     0.002273   464.158198     0.000000 
  16.747000   443.000000     0.002257   464.165658     0.000000 
  16.755000   402.000000     0.002488   464.173117     0.000000 
  16.763000   522.000000     0.001916   464.180577     0.000000 
  16.771000   461.000000     0.002169   464.188037     0.000000 
  16.779000   507.000000     0.001972   464.195496     0.000000 
  16.787000   445.000000     0.002247   464.202956     0.000000 
  16.795000   551.000000     0.001815   464.210415     0.000000 
  16.803000   452.000000     0.002212   464.217875     0.000000 
  16.811000   454.000000     0.002203   464.225334     0.000000 
  16.819000   500.000000     0.002000   464.232794     0.000000 
  16.827000   482.000000     0.002075   464.240253     0.000000 
  16.835000   429.000000     0.002331   464.247712     0.000000 
  16.843000   495.000000     0.002020   464.255172     0.000000 
  16.851000   509.000000     0.001965   464.262631     0.000000 
  16.859000   445.000000     0.002247   464.270090     0.000000 
  16.867000   445.000000     0.002247   464.277549     0.000000 
  16.875000   490.000000     0.002041   464.285008     0.000000 
  16.883000   462.000000     0.002165   464.292467     0.000000 
  16.891000   458.000000     0.002183   464.299926     0.000000 
  16.899000   487.000000     0.002053   464.307384     0.000000 
  16.907000   426.000000     0.002347   464.314843     0.000000 
  16.915000   410.000000     0.002439   464.322302     0.000000 
  16.923000   432.000000     0.002315   464.329760     0.000000 
  16.931000   483.000000     0.002070   464.337218     0.000000 
  16.939000   463.000000     0.002160   464.344677     0.000000 
  16.947000   448.000000     0.002232   464.352135     0.000000 
  16.955000   469.000000     0.002132   464.359593     0.000000 
  16.963000   421.000000     0.002375   464.367051     0.000000 
  16.971000   418.000000     0.002392   464.374509     0.000000 
  16.979000   403.000000     0.002481   464.381967     0.000000 
  16.987000   481.000000     0.002079   464.389425     0.000000 
  16.995000   404.000000     0.002475   464.396882     0.000000 
  17.003000   425.000000     0.002353   464.404340     0.000000 
  17.011000   434.000000     0.002304   464.411797     0.000000 
  17.019000   438.000000     0.002283   464.419254     0.000000 
  17.027000   419.000000     0.002387   464.426711     0.000000 
  17.035000   449.000000     0.002227   464.434168     0.000000 
  17.043000   450.000000     0.002222   464.441625     0.000000 
  17.051000   426.000000     0.002347   464.449082     0.000000 
  17.059000   435.000000     0.002299   464.456538     0.000000 
  17.067000   448.000000     0.002232   464.463995     0.000000 
  17.075000   443.000000     0.002257   464.471451     0.000000 
  17.083000   466.000000     0.002146   464.478907     0.000000 
  17.091000   401.000000     0.002494   464.486363     0.000000 
  17.099000   443.000000     0.002257   464.493819     0.000000 
  17.107000   456.000000     0.002193   464.501275     0.000000 
  17.115000   428.000000     0.002336   464.508730     0.000000 
  17.123000   417.000000     0.002398   464.516186     0.000000 
  17.131000   472.000000     0.002119   464.523641     0.000000 
  17.139000   459.000000     0.002179   464.531096     0.000000 
  17.147000   441.000000     0.002268   464.538551     0.000000 
  17.155000   459.000000     0.002179   464.546006     0.000000 
  17.163000   431.000000     0.002320   464.553460     0.000000 
  17.171000   437.000000     0.002288   464.560915     0.000000 
  17.179000   420.000000     0.002381   464.568369     0.000000 
  17.187000   452.000000     0.002212   464.575823     0.000000 
  17.195000   477.000000     0.002096   464.583277     0.000000 
  17.203000   467.000000     0.002141   464.590730     0.000000 
  17.211000   493.000000     0.002028   464.598184     0.000000 
  17.219000   508.000000     0.001969   464.605637     0.000000 
  17.227000   469.000000     0.002132   464.613090     0.000000 
  17.235000   460.000000     0.002174   464.620543     0.000000 
  17.243000   433.000000     0.002309   464.627996     0.000000 
  17.251000   459.000000     0.002179   464.635448     0.000000 
  17.259000   485.000000     0.002062   464.642901     0.000000 
  17.267000   465.000000     0.002151   464.650353     0.000000 
  17.275000   456.000000     0.002193   464.657804     0.000000 
  17.283000   502.000000     0.001992   464.665256     0.000000 
  17.291000   475.000000     0.002105   464.672707     0.000000 
  17.299000   459.000000     0.002179   464.680159     0.000000 
  17.307000   445.000000     0.002247   464.687610     0.000000 
  17.315000   450.000000     0.002222   464.695060     0.000000 
  17.323000   450.000000     0.002222   464.702511     0.000000 
  17.331000   474.000000     0.002110   464.709961     0.000000 
  17.339000   438.000000     0.002283   464.717411     0.000000 
  17.347000   502.000000     0.001992   464.724861     0.000000 
  17.355000   471.000000     0.002123   464.732311     0.000000 
  17.363000   460.000000     0.002174   464.739760     0.000000 
  17.371000   448.000000     0.002232   464.747209     0.000000 
  17.379000   452.000000     0.002212   464.754658     0.000000 
  17.387000   440.000000     0.002273   464.762106     0.000000 
  17.395000   441.000000     0.002268   464.769555     0.000000 
  17.403000   474.000000     0.002110   464.777003     0.000000 
  17.411000   453.000000     0.002208   464.784450     0.000000 
  17.419000   450.000000     0.002222   464.791898     0.000000 
  17.427000   494.000000     0.002024   464.799345     0.000000 
  17.435000   492.000000     0.002033   464.806792     0.000000 
  17.443000   485.000000     0.002062   464.814239     0.000000 
  17.451000   458.000000     0.002183   464.821685     0.000000 
  17.459000   479.000000     0.002088   464.829132     0.000000 
  17.467000   450.000000     0.002222   464.836577     0.000000 
  17.475000   428.000000     0.002336   464.844023     0.000000 
  17.483000   439.000000     0.002278   464.851468     0.000000 
  17.491000   451.000000     0.002217   464.858913     0.000000 
  17.499000   454.000000     0.002203   464.866358     0.000000 
  17.507000   468.000000     0.002137   464.873803     0.000000 
  17.515000   424.000000     0.002358   464.881247     0.000000 
  17.523000   459.000000     0.002179   464.888691     0.000000 
  17.531000   412.000000     0.002427   464.896134     0.000000 
  17.539000   413.000000     0.002421   464.903577     0.000000 
  17.547000   397.000000     0.002519   464.911020     0.000000 
  17.555000   428.000000     0.002336   464.918463     0.000000 
  17.563000   440.000000     0.002273   464.925905     0.000000 
  17.571000   405.000000     0.002469   467.775832     0.000000 
  17.579000   446.000000     0.002242   467.829234     0.000000 
  17.587000   483.000000     0.002070   467.883759     0.000000 
  17.595000   470.000000     0.002128   467.939444     0.000000 
  17.603000   449.000000     0.002227   467.996327     0.000000 
  17.611000   445.000000     0.002247   468.054448     0.000000 
  17.619000   429.000000     0.002331   468.113850     0.000000 
  17.627000   420.000000     0.002381   468.174574     0.000000 
  17.635000   438.000000     0.002283   468.236668     0.000000 
  17.643000   474.000000     0.002110   468.300177     0.000000 
  17.651000   500.000000     0.002000   468.365152     0.000000 
  17.659000   456.000000     0.002193   468.431644     0.000000 
  17.667000   469.000000     0.002132   468.499706     0.000000 
  17.675000   420.000000     0.002381   468.569395     0.000000 
  17.683000   447.000000     0.002237   468.640770     0.000000 
  17.691000   447.000000     0.002237   468.713892     0.000000 
  17.699000   474.000000     0.002110   468.788825     0.000000 
  17.707000   405.000000     0.002469   468.865636     0.000000 
  17.715000   459.000000     0.002179   468.944396     0.000000 
  17.723000   443.000000     0.002257   469.025179     0.000000 
  17.731000   446.000000     0.002242   469.108061     0.000000 
  17.739000   446.000000     0.002242   469.193123     0.000000 
  17.747000   435.000000     0.002299   469.280450     0.000000 
  17.755000   462.000000     0.002165   469.370132     0.000000 
  17.763000   421.000000     0.002375   469.462261     0.000000 
  17.771000   468.000000     0.002137   469.556936     0.000000 
  17.779000   449.000000     0.002227   469.654259     0.000000 
  17.787000   442.000000     0.002262   469.754340     0.000000 
  17.795000   439.000000     0.002278   469.857290     0.000000 
  17.803000   464.000000     0.002155   469.963232     0.000000 
  17.811000   491.000000     0.002037   470.072290     0.000000 
  17.819000   454.000000     0.002203   470.184597     0.000000 
  17.827000   460.000000     0.002174   470.300293     0.000000 
  17.835000   481.000000     0.002079   470.419527     0.000000 
  17.843000   464.000000     0.002155   470.542452     0.000000 
  17.851000   425.000000     0.002353   470.669235     0.000000 
  17.859000   479.000000     0.002088   470.800047     0.000000 
  17.867000   446.000000     0.002242   470.935074     0.000000 
  17.875000   447.000000     0.002237   471.074508     0.000000 
  17.883000   457.000000     0.002188   471.218555     0.000000 
  17.891000   454.000000     0.002203   471.367432     0.000000 
  17.899000   453.000000     0.002208   471.521369     0.000000 
  17.907000   457.000000     0.002188   471.680611     0.000000 
  17.915000   440.000000     0.002273   471.845416     0.000000 
  17.923000   452.000000     0.002212   472.016060     0.000000 
  17.931000   450.000000     0.002222   472.192833     0.000000 
  17.939000   439.000000     0.002278   472.376048     0.000000 
  17.947000   418.000000     0.002392   472.566035     0.000000 
  17.955000   465.000000     0.002151   472.763145     0.000000 
  17.963000   447.000000     0.002237   472.967753     0.000000 
  17.971000   421.000000     0.002375   473.180260     0.000000 
  17.979000   445.000000     0.002247   473.401092     0.000000 
  17.987000   458.000000     0.002183   473.630707     0.000000 
  17.995000   462.000000     0.002165   473.869591     0.000000 
  18.003000   450.000000     0.002222   474.118268     0.000000 
  18.011000   475.000000     0.002105   474.377296     0.000000 
  18.019000   445.000000     0.002247   474.647276     0.000000 
  18.027000   433.000000     0.002309   474.928851     0.000000 
  18.035000   496.000000     0.002016   475.222714     0.000000 
  18.043000   522.000000     0.001916   475.529609     0.000000 
  18.051000   491.000000     0.002037   475.850337     0.000000 
  18.059000   462.000000     0.002165   476.185763     0.000000 
  18.067000   461.000000     0.002169   476.536817     0.000000 
  18.075000   465.000000     0.002151   476.904509     0.000000 
  18.083000   469.000000     0.002132   477.289927     0.000000 
  18.091000   453.000000     0.002208   477.694250     0.000000 
  18.099000   479.000000     0.002088   478.118760     0.000000 
  18.107000   472.000000     0.002119   478.564846     0.000000 
  18.115000   438.000000     0.002283   479.034017     0.000000 
  18.123000   465.000000     0.002151   479.527921     0.000000 
  18.131000   422.000000     0.002370   480.048351     0.000000 
  18.139000   458.000000     0.002183   480.597265     0.000000 
  18.147000   493.000000     0.002028   481.176809     0.000000 
  18.155000   474.000000     0.002110   481.789330     0.000000 
  18.163000   453.000000     0.002208   482.437405     0.000000 
  18.171000   443.000000     0.002257   483.123867     0.000000 
  18.179000   440.000000     0.002273   483.851837     0.000000 
  18.187000   464.000000     0.002155   484.624756     0.000000 
  18.195000   440.000000     0.002273   485.446432     0.000000 
  18.203000   430.000000     0.002326   486.321080     0.000000 
  18.211000   467.000000     0.002141   487.253381     0.000000 
  18.219000   472.000000     0.002119   488.248542     0.000000 
  18.227000   446.000000     0.002242   489.312368     0.000000 
  18.235000   461.000000     0.002169   490.451350     0.000000 
  18.243000   481.000000     0.002079   491.672758     0.000000 
  18.251000   463.000000     0.002160   492.984762     0.000000 
  18.259000   415.000000     0.002410   494.396562     0.000000 
  18.267000   446.000000     0.002242   495.918552     0.000000 
  18.275000   468.000000     0.002137   497.562506     0.000000 
  18.283000   476.000000     0.002101   499.341809     0.000000 
  18.291000   496.000000     0.002016   501.271718     0.000000 
  18.299000   472.000000     0.002119   503.369692     0.000000 
  18.307000   534.000000     0.001873   505.655773     0.000000 
  18.315000   506.000000     0.001976   508.153066     0.000000 
  18.323000   552.000000     0.001812   510.888304     0.000000 
  18.331000   570.000000     0.001754   513.892554     0.000000 
  18.339000   604.000000     0.001656   517.202075     0.000000 
  18.347000   617.000000     0.001621   520.859393     0.000000 
  18.355000   682.000000     0.001466   524.914623     0.000000 
  18.363000   778.000000     0.001285   529.427142     0.000000 
  18.371000   826.000000     0.001211   534.467694     0.000000 
  18.379000   905.000000     0.001105   540.121065     0.000000 
  18.387000   931.000000     0.001074   546.489593     0.000000 
  18.395000   946.000000     0.001057   553.697571     0.000000 
  18.403000   965.000000     0.001036   561.897561     0.000000 
  18.411000   968.000000     0.001033   571.279311     0.000000 
  18.419000  1048.000000     0.000954   582.084487     0.000000 
  18.427000  1071.000000     0.000934   594.634214     0.000000 
  18.435000  1191.000000     0.000840   609.386390     0.000000 
  18.443000  1307.000000     0.000765   627.059694     0.000000 
  18.451000  1501.000000     0.000666   648.896331     0.000000 
  18.459000  1538.000000     0.000650   677.184214     0.000000 
  18.467000  1652.000000     0.000605   716.201508     0.000000 
  18.475000  1731.000000     0.000578   773.727476     0.000000 
  18.483000  1838.000000     0.000544   863.091994     0.000000 
  18.491000  2065.000000     0.000484  1005.322500     0.000000 
  18.499000  2142.000000     0.000467  1230.306391     0.000000 
  18.507000  2385.000000     0.000419  1575.268274     0.000000 
  18.515000  2731.000000     0.000366  2078.786058     0.000000 
  18.523000  2978.000000     0.000336  2769.593696     0.000000 
  18.531000  3199.000000     0.000313  3651.568445     0.000000 
  18.539000  3459.000000     0.000289  4688.473728     0.000000 
  18.547000  3966.000000     0.000252  5792.319360     0.000000 
  18.555000  4594.000000     0.000218  6817.922897     0.000000 
  18.563000  5164.000000     0.000194  7571.777569     0.000000 
  18.571000  5703.000000     0.000175  7862.160700     0.000000 
  18.579000  6085.000000     0.000164  7600.864257     0.000000 
  18.587000  5861.000000     0.000171  6867.687471     0.000000 
  18.595000  4955.000000     0.000202  5851.592286     0.000000 
  18.603000  3582.000000     0.000279  4747.788497     0.000000 
  18.611000  2115.000000     0.000473  3704.517758     0.000000 
  18.619000  1611.000000     0.000621  2812.804020     0.000000 
  18.627000  1121.000000     0.000892  2111.440370     0.000000 
  18.635000   983.000000     0.001017  1598.353716     0.000000 
  18.643000   911.000000     0.001098  1245.754880     0.000000 
  18.651000   835.000000     0.001198  1015.269943     0.000000 
  18.659000   708.000000     0.001412   869.402364     0.000000 
  18.667000   597.000000     0.001675   777.795357     0.000000 
  18.675000   579.000000     0.001727   718.954834     0.000000 
  18.683000   571.000000     0.001751   679.185183     0.000000 
  18.691000   465.000000     0.002151   650.461889     0.000000 
  18.699000   463.000000     0.002160   628.360647     0.000000 
  18.707000   485.000000     0.002062   610.514092     0.000000 
  18.715000   493.000000     0.002028   595.639538     0.000000 
  18.723000   461.000000     0.002169   582.998253     0.000000 
  18.731000   454.000000     0.002203   572.122181     0.000000 
  18.739000   441.000000     0.002268   562.684609     0.000000 
  18.747000   466.000000     0.002146   554.440427     0.000000 
  18.755000   477.000000     0.002096   547.197513     0.000000 
  18.763000   485.000000     0.002062   540.801551     0.000000 
  18.771000   471.000000     0.002123   535.126886     0.000000 
  18.779000   488.000000     0.002049   530.070115     0.000000 
  18.787000   503.000000     0.001988   525.545596     0.000000 
  18.795000   449.000000     0.002227   521.481897     0.000000 
  18.803000   466.000000     0.002146   517.819081     0.000000 
  18.811000   451.000000     0.002217   514.506577     0.000000 
  18.819000   432.000000     0.002315   511.501483     0.000000 
  18.827000   447.000000     0.002237   508.767228     0.000000 
  18.835000   431.000000     0.002320   506.272488     0.000000 
  18.843000   453.000000     0.002208   503.990313     0.000000 
  18.851000   472.000000     0.002119   501.897419     0.000000 
  18.859000   446.000000     0.002242   499.973606     0.000000 
  18.867000   446.000000     0.002242   498.201289     0.000000 
  18.875000   468.000000     0.002137   496.565098     0.000000 
  18.883000   512.000000     0.001953   495.051555     0.000000 
  18.891000   483.000000     0.002070   493.648805     0.000000 
  18.899000   452.000000     0.002212   492.346383     0.000000 
  18.907000   464.000000     0.002155   491.135027     0.000000 
  18.915000   458.000000     0.002183   490.006518     0.000000 
  18.923000   453.000000     0.002208   488.953538     0.000000 
  18.931000   427.000000     0.002342   487.969558     0.000000 
  18.939000   475.000000     0.002105   487.048737     0.000000 
  18.947000   530.000000     0.001887   486.185837     0.000000 
  18.955000   494.000000     0.002024   485.376151     0.000000 
  18.963000   497.000000     0.002012   484.615439     0.000000 
  18.971000   485.000000     0.002062   483.899874     0.000000 
  18.979000   523.000000     0.001912   483.225994     0.000000 
  18.987000   501.000000     0.001996   482.590664     0.000000 
  18.995000   461.000000     0.002169   481.991034     0.000000 
  19.003000   448.000000     0.002232   481.424515     0.000000 
  19.011000   484.000000     0.002066   480.888746     0.000000 
  19.019000   478.000000     0.002092   480.381574     0.000000 
  19.027000   490.000000     0.002041   479.901030     0.000000 
  19.035000   470.000000     0.002128   479.445311     0.000000 
  19.043000   447.000000     0.002237   479.012763     0.000000 
  19.051000   434.000000     0.002304   478.601870     0.000000 
  19.059000   442.000000     0.002262   478.211235     0.000000 
  19.067000   473.000000     0.002114   477.839573     0.000000 
  19.075000   460.000000     0.002174   477.485699     0.000000 
  19.083000   483.000000     0.002070   477.148517     0.000000 
  19.091000   493.000000     0.002028   476.827018     0.000000 
  19.099000   491.000000     0.002037   476.520264     0.000000 
  19.107000   506.000000     0.001976   476.227389     0.000000 
  19.115000   509.000000     0.001965   475.947587     0.000000 
  19.123000   532.000000     0.001880   475.680111     0.000000 
  19.131000   485.000000     0.002062   475.424267     0.000000 
  19.139000   427.000000     0.002342   475.179408     0.000000 
  19.147000   493.000000     0.002028   474.944932     0.000000 
  19.155000   481.000000     0.002079   474.720277     0.000000 
  19.163000   464.000000     0.002155   474.504919     0.000000 
  19.171000   455.000000     0.002198   474.298368     0.000000 
  19.179000   494.000000     0.002024   474.100166     0.000000 
  19.187000   449.000000     0.002227   473.909886     0.000000 
  19.195000   444.000000     0.002252   473.727124     0.000000 
  19.203000   491.000000     0.002037   473.551505     0.000000 
  19.211000   498.000000     0.002008   473.382676     0.000000 
  19.219000   552.000000     0.001812   473.220305     0.000000 
  19.227000   474.000000     0.002110   473.064080     0.000000 
  19.235000   481.000000     0.002079   472.913708     0.000000 
  19.243000   522.000000     0.001916   472.768914     0.000000 
  19.251000   479.000000     0.002088   472.629438     0.000000 
  19.259000   503.000000     0.001988   472.495034     0.000000 
  19.267000   448.000000     0.002232   472.365472     0.000000 
  19.275000   466.000000     0.002146   472.240534     0.000000 
  19.283000   472.000000     0.002119   472.120015     0.000000 
  19.291000   446.000000     0.002242   472.003718     0.000000 
  19.299000   441.000000     0.002268   471.891461     0.000000 
  19.307000   434.000000     0.002304   471.783070     0.000000 
  19.315000   482.000000     0.002075   471.678379     0.000000 
  19.323000   499.000000     0.002004   471.577233     0.000000 
  19.331000   516.000000     0.001938   471.479483     0.000000 
  19.339000   492.000000     0.002033   471.384990     0.000000 
  19.347000   494.000000     0.002024   471.293619     0.000000 
  19.355000   509.000000     0.001965   471.205246     0.000000 
  19.363000   439.000000     0.002278   471.119749     0.000000 
  19.371000   475.000000     0.002105   471.037014     0.000000 
  19.379000   459.000000     0.002179   470.956933     0.000000 
  19.387000   460.000000     0.002174   470.879402     0.000000 
  19.395000   504.000000     0.001984   470.804324     0.000000 
  19.403000   468.000000     0.002137   470.731605     0.000000 
  19.411000   480.000000     0.002083   470.661154     0.000000 
  19.419000   477.000000     0.002096   470.592888     0.000000 
  19.427000   453.000000     0.002208   470.526726     0.000000 
  19.435000   514.000000     0.001946   470.462589     0.000000 
  19.443000   513.000000     0.001949   470.400404     0.000000 
  19.451000   475.000000     0.002105   470.340101     0.000000 
  19.459000   470.000000     0.002128   470.281612     0.000000 
  19.467000   454.000000     0.002203   470.224873     0.000000 
  19.475000   431.000000     0.002320   470.169822     0.000000 
  19.483000   438.000000     0.002283   470.116401     0.000000 
  19.491000   429.000000     0.002331   470.064552     0.000000 
  19.499000   431.000000     0.002320   470.014223     0.000000 
  19.507000   437.000000     0.002288   469.965361     0.000000 
  19.515000   458.000000     0.002183   469.917917     0.000000 
  19.523000   446.000000     0.002242   469.871844     0.000000 
  19.531000   453.000000     0.002208   469.827096     0.000000 
  19.539000   474.000000     0.002110   469.783630     0.000000 
  19.547000   499.000000     0.002004   469.741403     0.000000 
  19.555000   494.000000     0.002024   469.700377     0.000000 
  19.563000   453.000000     0.002208   469.660511     0.000000 
  19.571000   410.000000     0.002439   469.621770     0.000000 
  19.579000   457.000000     0.002188   466.784095     0.000000 
  19.587000   463.000000     0.002160   466.791372     0.000000 
  19.595000   443.000000     0.002257   466.798649     0.000000 
  19.603000   467.000000     0.002141   466.805924     0.000000 
  19.611000   454.000000     0.002203   466.813198     0.000000 
  19.619000   475.000000     0.002105   466.820472     0.000000 
  19.627000   472.000000     0.002119   466.827744     0.000000 
  19.635000   453.000000     0.002208   466.835016     0.000000 
  19.643000   485.000000     0.002062   466.842286     0.000000 
  19.651000   453.000000     0.002208   466.849556     0.000000 
  19.659000   474.000000     0.002110   466.856824     0.000000 
  19.667000   462.000000     0.002165   466.864092     0.000000 
  19.675000   475.000000     0.002105   466.871358     0.000000 
  19.683000   433.000000     0.002309   466.878624     0.000000 
  19.691000   456.000000     0.002193   466.885888     0.000000 
  19.699000   445.000000     0.002247   466.893152     0.000000 
  19.707000   490.000000     0.002041   466.900414     0.000000 
  19.715000   447.000000     0.002237   466.907676     0.000000 
  19.723000   442.000000     0.002262   466.914936     0.000000 
  19.731000   463.000000     0.002160   466.922195     0.000000 
  19.739000   472.000000     0.002119   466.929454     0.000000 
  19.747000   484.000000     0.002066   466.936711     0.000000 
  19.755000   456.000000     0.002193   466.943968     0.000000 
  19.763000   442.000000     0.002262   466.951223     0.000000 
  19.771000   527.000000     0.001898   466.958477     0.000000 
  19.779000   469.000000     0.002132   466.965730     0.000000 
  19.787000   462.000000     0.002165   466.972983     0.000000 
  19.795000   468.000000     0.002137   466.980234     0.000000 
  19.803000   457.000000     0.002188   466.987484     0.000000 
  19.811000   485.000000     0.002062   466.994733     0.000000 
  19.819000   446.000000     0.002242   467.001981     0.000000 
  19.827000   457.000000     0.002188   467.009228     0.000000 
  19.835000   465.000000     0.002151   467.016474     0.000000 
  19.843000   467.000000     0.002141   467.023719     0.000000 
  19.851000   472.000000     0.002119   467.030963     0.000000 
  19.859000   468.000000     0.002137   467.038206     0.000000 
  19.867000   466.000000     0.002146   467.045448     0.000000 
  19.875000   492.000000     0.002033   467.052688     0.000000 
  19.883000   486.000000     0.002058   467.059928     0.000000 
  19.891000   497.000000     0.002012   467.067167     0.000000 
  19.899000   451.000000     0.002217   467.074404     0.000000 
  19.907000   481.000000     0.002079   467.081641     0.000000 
  19.915000   497.000000     0.002012   467.088876     0.000000 
  19.923000   495.000000     0.002020   467.096110     0.000000 
  19.931000   447.000000     0.002237   467.103344     0.000000 
  19.939000   453.000000     0.002208   467.110576     0.000000 
  19.947000   463.000000     0.002160   467.117807     0.000000 
  19.955000   472.000000     0.002119   467.125037     0.000000 
  19.963000   468.000000     0.002137   467.132266     0.000000 
  19.971000   447.000000     0.002237   467.139494     0.000000 
  19.979000   487.000000     0.002053   467.146720     0.000000 
  19.987000   487.000000     0.002053   467.153946     0.000000 
  19.995000   493.000000     0.002028   467.161171     0.000000 
  20.003000   467.000000     0.002141   467.168394     0.000000 
  20.011000   562.000000     0.001779   467.175616     0.000000 
  20.019000   569.000000     0.001757   467.182838     0.000000 
  20.027000   532.000000     0.001880   467.190058     0.000000 
  20.035000   518.000000     0.001931   467.197277     0.000000 
  20.043000   560.000000     0.001786   467.204495     0.000000 
  20.051000   589.000000     0.001698   467.211712     0.000000 
  20.059000   518.000000     0.001931   467.218927     0.000000 
  20.067000   459.000000     0.002179   467.226142     0.000000 
  20.075000   498.000000     0.002008   467.233355     0.000000 
  20.083000   557.000000     0.001795   467.240568     0.000000 
  20.091000   518.000000     0.001931   467.247779     0.000000 
  20.099000   509.000000     0.001965   467.254989     0.000000 
  20.107000   509.000000     0.001965   467.262198     0.000000 
  20.115000   562.000000     0.001779   467.269406     0.000000 
  20.123000   577.000000     0.001733   467.276613     0.000000 
  20.131000   486.000000     0.002058   467.283818     0.000000 
  20.139000   514.000000     0.001946   467.291023     0.000000 
  20.147000   553.000000     0.001808   467.298226     0.000000 
  20.155000   571.000000     0.001751   467.305428     0.000000 
  20.163000   464.000000     0.002155   467.312629     0.000000 
  20.171000   489.000000     0.002045   467.319829     0.000000 
  20.179000   473.000000     0.002114   467.327028     0.000000 
  20.187000   436.000000     0.002294   467.334225     0.000000 
  20.195000   469.000000     0.002132   467.341422     0.000000 
  20.203000   496.000000     0.002016   467.348617     0.000000 
  20.211000   497.000000     0.002012   467.355811     0.000000 
  20.219000   513.000000     0.001949   467.363004     0.000000 
  20.227000   497.000000     0.002012   467.370196     0.000000 
  20.235000   466.000000     0.002146   467.377386     0.000000 
  20.243000   468.000000     0.002137   467.384576     0.000000 
  20.251000   473.000000     0.002114   467.391764     0.000000 
  20.259000   471.000000     0.002123   467.398951     0.000000 
  20.267000   468.000000     0.002137   467.406137     0.000000 
  20.275000   471.000000     0.002123   467.413322     0.000000 
  20.283000   503.000000     0.001988   467.420505     0.000000 
  20.291000   476.000000     0.002101   467.427688     0.000000 
  20.299000   499.000000     0.002004   467.434869     0.000000 
  20.307000   468.000000     0.002137   467.442049     0.000000 
  20.315000   465.000000     0.002151   467.449228     0.000000 
  20.323000   460.000000     0.002174   467.456406     0.000000 
  20.331000   495.000000     0.002020   467.463582     0.000000 
  20.339000   488.000000     0.002049   467.470757     0.000000 
  20.347000   491.000000     0.002037   467.477931     0.000000 
  20.355000   479.000000     0.002088   467.485104     0.000000 
  20.363000   505.000000     0.001980   467.492276     0.000000 
  20.371000   495.000000     0.002020   467.499446     0.000000 
  20.379000   479.000000     0.002088   467.506616     0.000000 
  20.387000   507.000000     0.001972   467.513784     0.000000 
  20.395000   496.000000     0.002016   467.520950     0.000000 
  20.403000   499.000000     0.002004   467.528116     0.000000 
  20.411000   531.000000     0.001883   467.535280     0.000000 
  20.419000   501.000000     0.001996   467.542444     0.000000 
  20.427000   493.000000     0.002028   467.549606     0.000000 
  20.435000   504.000000     0.001984   467.556766     0.000000 
  20.443000   502.000000     0.001992   467.563926     0.000000 
  20.451000   522.000000     0.001916   467.571084     0.000000 
  20.459000   508.000000     0.001969   467.578241     0.000000 
  20.467000   499.000000     0.002004   467.585397     0.000000 
  20.475000   455.000000     0.002198   467.592552     0.000000 
  20.483000   508.000000     0.001969   467.599705     0.000000 
  20.491000   482.000000     0.002075   467.606857     0.000000 
  20.499000   455.000000     0.002198   467.614008     0.000000 
  20.507000   460.000000     0.002174   467.621158     0.000000 
  20.515000   506.000000     0.001976   467.628306     0.000000 
  20.523000   531.000000     0.001883   467.635453     0.000000 
  20.531000   449.000000     0.002227   467.642599     0.000000 
  20.539000   508.000000     0.001969   467.649744     0.000000 
  20.547000   504.000000     0.001984   467.656887     0.000000 
  20.555000   481.000000     0.002079   467.664029     0.000000 
  20.563000   491.000000     0.002037   467.671170     0.000000 
  20.571000   508.000000     0.001969   467.678310     0.000000 
  20.579000   550.000000     0.001818   467.685448     0.000000 
  20.587000   524.000000     0.001908   467.692585     0.000000 
  20.595000   467.000000     0.002141   467.699721     0.000000 
  20.603000   494.000000     0.002024   467.706855     0.000000 
  20.611000   521.000000     0.001919   467.713989     0.000000 
  20.619000   520.000000     0.001923   467.721121     0.000000 
  20.627000   467.000000     0.002141   467.728251     0.000000 
  20.635000   431.000000     0.002320   467.735381     0.000000 
  20.643000   489.000000     0.002045   467.742509     0.000000 
  20.651000   480.000000     0.002083   467.749636     0.000000 
  20.659000   508.000000     0.001969   467.756762     0.000000 
  20.667000   453.000000     0.002208   467.763886     0.000000 
  20.675000   481.000000     0.002079   467.771009     0.000000 
  20.683000   523.000000     0.001912   467.778131     0.000000 
  20.691000   562.000000     0.001779   467.785251     0.000000 
  20.699000   563.000000     0.001776   467.792370     0.000000 
  20.707000   446.000000     0.002242   467.799488     0.000000 
  20.715000   527.000000     0.001898   467.806604     0.000000 
  20.723000   481.000000     0.002079   467.813720     0.000000 
  20.731000   485.000000     0.002062   467.820834     0.000000 
  20.739000   470.000000     0.002128   467.827946     0.000000 
  20.747000   492.000000     0.002033   467.835058     0.000000 
  20.755000   490.000000     0.002041   467.842168     0.000000 
  20.763000   488.000000     0.002049   467.849276     0.000000 
  20.771000   453.000000     0.002208   467.856384     0.000000 
  20.779000   454.000000     0.002203   467.863490     0.000000 
  20.787000   460.000000     0.002174   467.870594     0.000000 
  20.795000   467.000000     0.002141   467.877698     0.000000 
  20.803000   494.000000     0.002024   467.884800     0.000000 
  20.811000   486.000000     0.002058   467.891900     0.000000 
  20.819000   487.000000     0.002053   467.899000     0.000000 
  20.827000   524.000000     0.001908   467.906098     0.000000 
  20.835000   490.000000     0.002041   467.913195     0.000000 
  20.843000   495.000000     0.002020   467.920290     0.000000 
  20.851000   512.000000     0.001953   467.927384     0.000000 
  20.859000   482.000000     0.002075   467.934477     0.000000 
  20.867000   510.000000     0.001961   467.941568     0.000000 
  20.875000   484.000000     0.002066   467.948658     0.000000 
  20.883000   489.000000     0.002045   467.955747     0.000000 
  20.891000   487.000000     0.002053   467.962834     0.000000 
  20.899000   516.000000     0.001938   467.969920     0.000000 
  20.907000   494.000000     0.002024   467.977005     0.000000 
  20.915000   459.000000     0.002179   467.984088     0.000000 
  20.923000   483.000000     0.002070   467.991170     0.000000 
  20.931000   491.000000     0.002037   467.998251     0.000000 
  20.939000   475.000000     0.002105   468.005330     0.000000 
  20.947000   460.000000     0.002174   468.012408     0.000000 
  20.955000   460.000000     0.002174   468.019484     0.000000 
  20.963000   500.000000     0.002000   468.026559     0.000000 
  20.971000   507.000000     0.001972   468.033633     0.000000 
  20.979000   488.000000     0.002049   468.040705     0.000000 
  20.987000   475.000000     0.002105   468.047776     0.000000 
  20.995000   462.000000     0.002165   468.054846     0.000000 
  21.003000   505.000000     0.001980   468.061914     0.000000 
  21.011000   536.000000     0.001866   468.068981     0.000000 
  21.019000   476.000000     0.002101   468.076046     0.000000 
  21.027000   492.000000     0.002033   468.083110     0.000000 
  21.035000   545.000000     0.001835   468.090173     0.000000 
  21.043000   551.000000     0.001815   468.097234     0.000000 
  21.051000   541.000000     0.001848   468.104294     0.000000 
  21.059000   423.000000     0.002364   468.111352     0.000000 
  21.067000   456.000000     0.002193   468.118409     0.000000 
  21.075000   515.000000     0.001942   468.125465     0.000000 
  21.083000   463.000000     0.002160   468.132519     0.000000 
  21.091000   488.000000     0.002049   468.139572     0.000000 
  21.099000   504.000000     0.001984   468.146624     0.000000 
  21.107000   518.000000     0.001931   468.153674     0.000000 
  21.115000   504.000000     0.001984   468.160722     0.000000 
  21.123000   456.000000     0.002193   468.167769     0.000000 
  21.131000   469.000000     0.002132   468.174815     0.000000 
  21.139000   452.000000     0.002212   468.181860     0.000000 
  21.147000   448.000000     0.002232   468.188903     0.000000 
  21.155000   462.000000     0.002165   468.195944     0.000000 
  21.163000   451.000000     0.002217   468.202984     0.000000 
  21.171000   484.000000     0.002066   468.210023     0.000000 
  21.179000   466.000000     0.002146   468.217060     0.000000 
  21.187000   458.000000     0.002183   468.224096     0.000000 
  21.195000   431.000000     0.002320   468.231130     0.000000 
  21.203000   439.000000     0.002278   468.238163     0.000000 
  21.211000   450.000000     0.002222   468.245195     0.000000 
  21.219000   486.000000     0.002058   468.252225     0.000000 
  21.227000   462.000000     0.002165   468.259253     0.000000 
  21.235000   456.000000     0.002193   468.266281     0.000000 
  21.243000   455.000000     0.002198   468.273306     0.000000 
  21.251000   436.000000     0.002294   468.280331     0.000000 
  21.259000   436.000000     0.002294   468.287354     0.000000 
  21.267000   464.000000     0.002155   468.294375     0.000000 
  21.275000   473.000000     0.002114   468.301395     0.000000 
  21.283000   446.000000     0.002242   468.308413     0.000000 
  21.291000   440.000000     0.002273   468.315430     0.000000 
  21.299000   429.000000     0.002331   468.322446     0.000000 
  21.307000   475.000000     0.002105   468.329460     0.000000 
  21.315000   447.000000     0.002237   468.336473     0.000000 
  21.323000   452.000000     0.002212   468.343484     0.000000 
  21.331000   439.000000     0.002278   468.350493     0.000000 
  21.339000   443.000000     0.002257   468.357502     0.000000 
  21.347000   425.000000     0.002353   468.364508     0.000000 
  21.355000   454.000000     0.002203   468.371514     0.000000 
  21.363000   477.000000     0.002096   468.378517     0.000000 
  21.371000   512.000000     0.001953   468.385520     0.000000 
  21.379000   495.000000     0.002020   468.392521     0.000000 
  21.387000   468.000000     0.002137   468.399520     0.000000 
  21.395000   483.000000     0.002070   468.406518     0.000000 
  21.403000   508.000000     0.001969   468.413514     0.000000 
  21.411000   513.000000     0.001949   468.420509     0.000000 
  21.419000   495.000000     0.002020   468.427502     0.000000 
  21.427000   529.000000     0.001890   468.434494     0.000000 
  21.435000   512.000000     0.001953   468.441485     0.000000 
  21.443000   550.000000     0.001818   468.448474     0.000000 
  21.451000   560.000000     0.001786   468.455461     0.000000 
  21.459000   466.000000     0.002146   468.462447     0.000000 
  21.467000   532.000000     0.001880   468.469431     0.000000 
  21.475000   491.000000     0.002037   468.476414     0.000000 
  21.483000   508.000000     0.001969   468.483395     0.000000 
  21.491000   473.000000     0.002114   468.490375     0.000000 
  21.499000   450.000000     0.002222   468.497354     0.000000 
  21.507000   446.000000     0.002242   468.504330     0.000000 
  21.515000   489.000000     0.002045   468.511306     0.000000 
  21.523000   476.000000     0.002101   468.518279     0.000000 
  21.531000   510.000000     0.001961   468.525252     0.000000 
  21.539000   491.000000     0.002037   468.532222     0.000000 
  21.547000   479.000000     0.002088   468.539192     0.000000 
  21.555000   456.000000     0.002193   468.546159     0.000000 
  21.563000   463.000000     0.002160   468.553125     0.000000 
  21.571000   462.000000     0.002165   468.560090     0.000000 
  21.579000   471.000000     0.002123   468.567053     0.000000 
  21.587000   456.000000     0.002193   468.574015     0.000000 
  21.595000   472.000000     0.002119   468.580975     0.000000 
  21.603000   524.000000     0.001908   468.587933     0.000000 
  21.611000   513.000000     0.001949   468.594890     0.000000 
  21.619000   482.000000     0.002075   468.601845     0.000000 
  21.627000   522.000000     0.001916   468.608799     0.000000 
  21.635000   491.000000     0.002037   468.615751     0.000000 
  21.643000   522.000000     0.001916   468.622702     0.000000 
  21.651000   495.000000     0.002020   468.629651     0.000000 
  21.659000   471.000000     0.002123   468.636599     0.000000 
  21.667000   512.000000     0.001953   468.643545     0.000000 
  21.675000   513.000000     0.001949   468.650489     0.000000 
  21.683000   491.000000     0.002037   468.657432     0.000000 
  21.691000   491.000000     0.002037   468.664374     0.000000 
  21.699000   466.000000     0.002146   468.671313     0.000000 
  21.707000   460.000000     0.002174   468.678252     0.000000 
  21.715000   468.000000     0.002137   468.685188     0.000000 
  21.723000   443.000000     0.002257   468.692123     0.000000 
  21.731000   445.000000     0.002247   468.699057     0.000000 
  21.739000   461.000000     0.002169   468.705989     0.000000 
  21.747000   475.000000     0.002105   468.712919     0.000000 
  21.755000   443.000000     0.002257   468.719848     0.000000 
  21.763000   447.000000     0.002237   468.726775     0.000000 
  21.771000   469.000000     0.002132   468.733701     0.000000 
  21.779000   496.000000     0.002016   468.740625     0.000000 
  21.787000   461.000000     0.002169   468.747547     0.000000 
  21.795000   445.000000     0.002247   468.754468     0.000000 
  21.803000   471.000000     0.002123   468.761387     0.000000 
  21.811000   433.000000     0.002309   468.768305     0.000000 
  21.819000   468.000000     0.002137   468.775221     0.000000 
  21.827000   452.000000     0.002212   468.782135     0.000000 
  21.835000   458.000000     0.002183   468.789048     0.000000 
  21.843000   453.000000     0.002208   468.795959     0.000000 
  21.851000   454.000000     0.002203   468.802869     0.000000 
  21.859000   475.000000     0.002105   468.809777     0.000000 
  21.867000   464.000000     0.002155   468.816683     0.000000 
  21.875000   494.000000     0.002024   468.823588     0.000000 
  21.883000   476.000000     0.002101   468.830491     0.000000 
  21.891000   478.000000     0.002092   468.837393     0.000000 
  21.899000   508.000000     0.001969   468.844293     0.000000 
  21.907000   499.000000     0.002004   468.851191     0.000000 
  21.915000   484.000000     0.002066   468.858088     0.000000 
  21.923000   499.000000     0.002004   468.864983     0.000000 
  21.931000   457.000000     0.002188   468.871876     0.000000 
  21.939000   481.000000     0.002079   468.878768     0.000000 
  21.947000   490.000000     0.002041   468.885658     0.000000 
  21.955000   491.000000     0.002037   468.892547     0.000000 
  21.963000   490.000000     0.002041   468.899434     0.000000 
  21.971000   475.000000     0.002105   468.906319     0.000000 
  21.979000   469.000000     0.002132   468.913203     0.000000 
  21.987000   508.000000     0.001969   468.920085     0.000000 
  21.995000   479.000000     0.002088   468.926965     0.000000 
  22.003000   467.000000     0.002141   468.933844     0.000000 
  22.011000   442.000000     0.002262   468.940721     0.000000 
  22.019000   471.000000     0.002123   468.947596     0.000000 
  22.027000   465.000000     0.002151   468.954470     0.000000 
  22.035000   445.000000     0.002247   468.961342     0.000000 
  22.043000   448.000000     0.002232   468.968213     0.000000 
  22.051000   482.000000     0.002075   468.975081     0.000000 
  22.059000   482.000000     0.002075   468.981949     0.000000 
  22.067000   482.000000     0.002075   468.988814     0.000000 
  22.075000   476.000000     0.002101   468.995678     0.000000 
  22.083000   465.000000     0.002151   469.002540     0.000000 
  22.091000   468.000000     0.002137   469.009401     0.000000 
  22.099000   453.000000     0.002208   469.016259     0.000000 
  22.107000   477.000000     0.002096   469.023117     0.000000 
  22.115000   469.000000     0.002132   469.029972     0.000000 
  22.123000   476.000000     0.002101   469.036826     0.000000 
  22.131000   481.000000     0.002079   469.043678     0.000000 
  22.139000   497.000000     0.002012   469.050528     0.000000 
  22.147000   519.000000     0.001927   469.057377     0.000000 
  22.155000   505.000000     0.001980   469.064224     0.000000 
  22.163000   466.000000     0.002146   469.071070     0.000000 
  22.171000   479.000000     0.002088   469.077913     0.000000 
  22.179000   486.000000     0.002058   469.084755     0.000000 
  22.187000   481.000000     0.002079   469.091596     0.000000 
  22.195000   490.000000     0.002041   469.098434     0.000000 
  22.203000   478.000000     0.002092   469.105271     0.000000 
  22.211000   459.000000     0.002179   469.112107     0.000000 
  22.219000   453.000000     0.002208   469.118940     0.000000 
  22.227000   463.000000     0.002160   469.125772     0.000000 
  22.235000   480.000000     0.002083   469.132602     0.000000 
  22.243000   474.000000     0.002110   469.139431     0.000000 
  22.251000   493.000000     0.002028   469.146257     0.000000 
  22.259000   475.000000     0.002105   469.153082     0.000000 
  22.267000   470.000000     0.002128   469.159906     0.000000 
  22.275000   479.000000     0.002088   469.166727     0.000000 
  22.283000   454.000000     0.002203   469.173547     0.000000 
  22.291000   476.000000     0.002101   469.180365     0.000000 
  22.299000   455.000000     0.002198   469.187182     0.000000 
  22.307000   493.000000     0.002028   469.193997     0.000000 
  22.315000   496.000000     0.002016   469.200810     0.000000 
  22.323000   462.000000     0.002165   469.207621     0.000000 
  22.331000   471.000000     0.002123   469.214430     0.000000 
  22.339000   486.000000     0.002058   469.221238     0.000000 
  22.347000   499.000000     0.002004   469.228044     0.000000 
  22.355000   488.000000     0.002049   469.234849     0.000000 
  22.363000   451.000000     0.002217   469.241651     0.000000 
  22.371000   473.000000     0.002114   469.248452     0.000000 
  22.379000   466.000000     0.002146   469.255251     0.000000 
  22.387000   488.000000     0.002049   469.262049     0.000000 
  22.395000   485.000000     0.002062   469.268845     0.000000 
  22.403000   503.000000     0.001988   469.275638     0.000000 
  22.411000   479.000000     0.002088   469.282431     0.000000 
  22.419000   487.000000     0.002053   469.289221     0.000000 
  22.427000   470.000000     0.002128   469.296010     0.000000 
  22.435000   474.000000     0.002110   469.302797     0.000000 
  22.443000   469.000000     0.002132   469.309582     0.000000 
  22.451000   521.000000     0.001919   469.316365     0.000000 
  22.459000   556.000000     0.001799   469.323147     0.000000 
  22.467000   545.000000     0.001835   469.329927     0.000000 
  22.475000   493.000000     0.002028   469.336705     0.000000 
  22.483000   498.000000     0.002008   469.343481     0.000000 
  22.491000   528.000000     0.001894   469.350256     0.000000 
  22.499000   503.000000     0.001988   469.357029     0.000000 
  22.507000   457.000000     0.002188   469.363800     0.000000 
  22.515000   467.000000     0.002141   469.370569     0.000000 
  22.523000   493.000000     0.002028   469.377337     0.000000 
  22.531000   497.000000     0.002012   469.384102     0.000000 
  22.539000   511.000000     0.001957   469.390866     0.000000 
  22.547000   555.000000     0.001802   469.397629     0.000000 
  22.555000   525.000000     0.001905   469.404389     0.000000 
  22.563000   593.000000     0.001686   469.411148     0.000000 
  22.571000   543.000000     0.001842   469.417905     0.000000 
  22.579000   523.000000     0.001912   469.424660     0.000000 
  22.587000   417.000000     0.002398   469.431413     0.000000 
  22.595000   482.000000     0.002075   469.438164     0.000000 
  22.603000   525.000000     0.001905   469.444914     0.000000 
  22.611000   505.000000     0.001980   469.451662     0.000000 
  22.619000   441.000000     0.002268   469.458408     0.000000 
  22.627000   466.000000     0.002146   469.465152     0.000000 
  22.635000   480.000000     0.002083   469.471895     0.000000 
  22.643000   513.000000     0.001949   469.478636     0.000000 
  22.651000   516.000000     0.001938   469.485374     0.000000 
  22.659000   490.000000     0.002041   469.492111     0.000000 
  22.667000   474.000000     0.002110   469.498847     0.000000 
  22.675000   548.000000     0.001825   469.505580     0.000000 
  22.683000   541.000000     0.001848   469.512312     0.000000 
  22.691000   497.000000     0.002012   469.519042     0.000000 
  22.699000   467.000000     0.002141   469.525770     0.000000 
  22.707000   486.000000     0.002058   469.532496     0.000000 
  22.715000   513.000000     0.001949   469.539220     0.000000 
  22.723000   524.000000     0.001908   469.545943     0.000000 
  22.731000   473.000000     0.002114   469.552664     0.000000 
  22.739000   484.000000     0.002066   469.559383     0.000000 
  22.747000   499.000000     0.002004   469.566100     0.000000 
  22.755000   484.000000     0.002066   469.572815     0.000000 
  22.763000   462.000000     0.002165   469.579528     0.000000 
  22.771000   470.000000     0.002128   469.586240     0.000000 
  22.779000   497.000000     0.002012   469.592950     0.000000 
  22.787000   564.000000     0.001773   469.599658     0.000000 
  22.795000   484.000000     0.002066   469.606364     0.000000 
  22.803000   496.000000     0.002016   469.613068     0.000000 
  22.811000   416.000000     0.002404   469.619770     0.000000 
  22.819000   466.000000     0.002146   469.626471     0.000000 
  22.827000   465.000000     0.002151   469.633170     0.000000 
  22.835000   481.000000     0.002079   469.639866     0.000000 
  22.843000   505.000000     0.001980   469.646561     0.000000 
  22.851000   497.000000     0.002012   469.653255     0.000000 
  22.859000   472.000000     0.002119   469.659946     0.000000 
  22.867000   502.000000     0.001992   469.666635     0.000000 
  22.875000   493.000000     0.002028   469.673323     0.000000 
  22.883000   510.000000     0.001961   469.680009     0.000000 
  22.891000   523.000000     0.001912   469.686692     0.000000 
  22.899000   496.000000     0.002016   469.693374     0.000000 
  22.907000   471.000000     0.002123   469.700055     0.000000 
  22.915000   521.000000     0.001919   469.706733     0.000000 
  22.923000   474.000000     0.002110   469.713409     0.000000 
  22.931000   484.000000     0.002066   469.720084     0.000000 
  22.939000   500.000000     0.002000   469.726756     0.000000 
  22.947000   493.000000     0.002028   469.733427     0.000000 
  22.955000   466.000000     0.002146   469.740096     0.000000 
  22.963000   513.000000     0.001949   469.746763     0.000000 
  22.971000   470.000000     0.002128   469.753428     0.000000 
  22.979000   464.000000     0.002155   469.760092     0.000000 
  22.987000   451.000000     0.002217   469.766753     0.000000 
  22.995000   490.000000     0.002041   469.773412     0.000000 
  23.003000   486.000000     0.002058   469.780070     0.000000 
  23.011000   455.000000     0.002198   469.786726     0.000000 
  23.019000   464.000000     0.002155   469.793380     0.000000 
  23.027000   482.000000     0.002075   469.800031     0.000000 
  23.035000   485.000000     0.002062   469.806682     0.000000 
  23.043000   482.000000     0.002075   469.813330     0.000000 
  23.051000   466.000000     0.002146   469.819976     0.000000 
  23.059000   498.000000     0.002008   469.826620     0.000000 
  23.067000   496.000000     0.002016   469.833263     0.000000 
  23.075000   521.000000     0.001919   469.839903     0.000000 
  23.083000   507.000000     0.001972   469.846542     0.000000 
  23.091000   458.000000     0.002183   469.853179     0.000000 
  23.099000   468.000000     0.002137   469.859813     0.000000 
  23.107000   506.000000     0.001976   469.866446     0.000000 
  23.115000   487.000000     0.002053   469.873077     0.000000 
  23.123000   479.000000     0.002088   469.879706     0.000000 
  23.131000   484.000000     0.002066   469.886333     0.000000 
  23.139000   489.000000     0.002045   469.892959     0.000000 
  23.147000   526.000000     0.001901   469.899582     0.000000 
  23.155000   502.000000     0.001992   469.906203     0.000000 
  23.163000   485.000000     0.002062   469.912823     0.000000 
  23.171000   476.000000     0.002101   469.919440     0.000000 
  23.179000   462.000000     0.002165   469.926056     0.000000 
  23.187000   484.000000     0.002066   469.932670     0.000000 
  23.195000   464.000000     0.002155   469.939281     0.000000 
  23.203000   498.000000     0.002008   469.945891     0.000000 
  23.211000   470.000000     0.002128   469.952499     0.000000 
  23.219000   479.000000     0.002088   469.959105     0.000000 
  23.227000   493.000000     0.002028   469.965709     0.000000 
  23.235000   469.000000     0.002132   469.972311     0.000000 
  23.243000   461.000000     0.002169   469.978911     0.000000 
  23.251000   472.000000     0.002119   469.985509     0.000000 
  23.259000   450.000000     0.002222   469.992105     0.000000 
  23.267000   450.000000     0.002222   469.998700     0.000000 
  23.275000   487.000000     0.002053   470.005292     0.000000 
  23.283000   494.000000     0.002024   470.011882     0.000000 
  23.291000   525.000000     0.001905   470.018471     0.000000 
  23.299000   467.000000     0.002141   470.025057     0.000000 
  23.307000   506.000000     0.001976   470.031642     0.000000 
  23.315000   541.000000     0.001848   470.038224     0.000000 
  23.323000   499.000000     0.002004   470.044805     0.000000 
  23.331000   490.000000     0.002041   470.051383     0.000000 
  23.339000   527.000000     0.001898   470.057960     0.000000 
  23.347000   523.000000     0.001912   470.064535     0.000000 
  23.355000   520.000000     0.001923   470.071107     0.000000 
  23.363000   471.000000     0.002123   470.077678     0.000000 
  23.371000   522.000000     0.001916   470.084247     0.000000 
  23.379000   507.000000     0.001972   470.090814     0.000000 
  23.387000   518.000000     0.001931   470.097379     0.000000 
  23.395000   531.000000     0.001883   470.103941     0.000000 
  23.403000   473.000000     0.002114   470.110502     0.000000 
  23.411000   452.000000     0.002212   470.117061     0.000000 
  23.419000   486.000000     0.002058   470.123618     0.000000 
  23.427000   503.000000     0.001988   470.130173     0.000000 
  23.435000   499.000000     0.002004   470.136726     0.000000 
  23.443000   515.000000     0.001942   470.143277     0.000000 
  23.451000   512.000000     0.001953   470.149826     0.000000 
  23.459000   469.000000     0.002132   470.156373     0.000000 
  23.467000   479.000000     0.002088   470.162918     0.000000 
  23.475000   510.000000     0.001961   470.169461     0.000000 
  23.483000   503.000000     0.001988   470.176002     0.000000 
  23.491000   529.000000     0.001890   470.182541     0.000000 
  23.499000   558.000000     0.001792   470.189077     0.000000 
  23.507000   500.000000     0.002000   470.195612     0.000000 
  23.515000   503.000000     0.001988   470.202145     0.000000 
  23.523000   545.000000     0.001835   470.208676     0.000000 
  23.531000   520.000000     0.001923   470.215205     0.000000 
  23.539000   500.000000     0.002000   470.221732     0.000000 
  23.547000   472.000000     0.002119   470.228257     0.000000 
  23.555000   465.000000     0.002151   470.234780     0.000000 
  23.563000   487.000000     0.002053   470.241301     0.000000 
  23.571000   493.000000     0.002028   470.247820     0.000000 
  23.579000   465.000000     0.002151   470.254337     0.000000 
  23.587000   439.000000     0.002278   470.260851     0.000000 
  23.595000   455.000000     0.002198   470.267364     0.000000 
  23.603000   478.000000     0.002092   470.273875     0.000000 
  23.611000   520.000000     0.001923   470.280384     0.000000 
  23.619000   505.000000     0.001980   470.286891     0.000000 
  23.627000   471.000000     0.002123   470.293395     0.000000 
  23.635000   456.000000     0.002193   470.299898     0.000000 
  23.643000   471.000000     0.002123   470.306399     0.000000 
  23.651000   473.000000     0.002114   470.312897     0.000000 
  23.659000   448.000000     0.002232   470.319394     0.000000 
  23.667000   464.000000     0.002155   470.325888     0.000000 
  23.675000   446.000000     0.002242   470.332381     0.000000 
  23.683000   453.000000     0.002208   470.338871     0.000000 
  23.691000   507.000000     0.001972   470.345360     0.000000 
  23.699000   416.000000     0.002404   470.351846     0.000000 
  23.707000   467.000000     0.002141   470.358330     0.000000 
  23.715000   463.000000     0.002160   470.364813     0.000000 
  23.723000   509.000000     0.001965   470.371293     0.000000 
  23.731000   439.000000     0.002278   470.377771     0.000000 
  23.739000   482.000000     0.002075   470.384247     0.000000 
  23.747000   446.000000     0.002242   470.390721     0.000000 
  23.755000   485.000000     0.002062   470.397193     0.000000 
  23.763000   506.000000     0.001976   470.403663     0.000000 
  23.771000   486.000000     0.002058   470.410131     0.000000 
  23.779000   472.000000     0.002119   470.416597     0.000000 
  23.787000   494.000000     0.002024   491.805205     0.000000 
  23.795000   497.000000     0.002012   492.224471     0.000000 
  23.803000   500.000000     0.002000   492.655801     0.000000 
  23.811000   521.000000     0.001919   493.099669     0.000000 
  23.819000   506.000000     0.001976   493.556574     0.000000 
  23.827000   485.000000     0.002062   494.027039     0.000000 
  23.835000   487.000000     0.002053   494.511613     0.000000 
  23.843000   484.000000     0.002066   495.010874     0.000000 
  23.851000   484.000000     0.002066   495.525430     0.000000 
  23.859000   503.000000     0.001988   496.055921     0.000000 
  23.867000   472.000000     0.002119   496.603019     0.000000 
  23.875000   497.000000     0.002012   497.167433     0.000000 
  23.883000   470.000000     0.002128   497.749912     0.000000 
  23.891000   460.000000     0.002174   498.351242     0.000000 
  23.899000   502.000000     0.001992   498.972255     0.000000 
  23.907000   476.000000     0.002101   499.613829     0.000000 
  23.915000   511.000000     0.001957   500.276892     0.000000 
  23.923000   489.000000     0.002045   500.962422     0.000000 
  23.931000   457.000000     0.002188   501.671457     0.000000 
  23.939000   491.000000     0.002037   502.405093     0.000000 
  23.947000   493.000000     0.002028   503.164493     0.000000 
  23.955000   474.000000     0.002110   503.950886     0.000000 
  23.963000   471.000000     0.002123   504.765578     0.000000 
  23.971000   472.000000     0.002119   505.609954     0.000000 
  23.979000   460.000000     0.002174   506.485486     0.000000 
  23.987000   465.000000     0.002151   507.393735     0.000000 
  23.995000   469.000000     0.002132   508.336364     0.000000 
  24.003000   470.000000     0.002128   509.315142     0.000000 
  24.011000   477.000000     0.002096   510.331952     0.000000 
  24.019000   462.000000     0.002165   511.388804     0.000000 
  24.027000   465.000000     0.002151   512.487840     0.000000 
  24.035000   516.000000     0.001938   513.631346     0.000000 
  24.043000   483.000000     0.002070   514.821769     0.000000 
  24.051000   444.000000     0.002252   516.061723     0.000000 
  24.059000   494.000000     0.002024   517.354007     0.000000 
  24.067000   499.000000     0.002004   518.701622     0.000000 
  24.075000   479.000000     0.002088   520.107784     0.000000 
  24.083000   491.000000     0.002037   521.575950     0.000000 
  24.091000   503.000000     0.001988   523.109831     0.000000 
  24.099000   520.000000     0.001923   524.713424     0.000000 
  24.107000   536.000000     0.001866   526.391032     0.000000 
  24.115000   533.000000     0.001876   528.147294     0.000000 
  24.123000   493.000000     0.002028   529.987219     0.000000 
  24.131000   494.000000     0.002024   531.916221     0.000000 
  24.139000   483.000000     0.002070   533.940158     0.000000 
  24.147000   484.000000     0.002066   536.065376     0.000000 
  24.155000   505.000000     0.001980   538.298763     0.000000 
  24.163000   507.000000     0.001972   540.647798     0.000000 
  24.171000   485.000000     0.002062   543.120618     0.000000 
  24.179000   518.000000     0.001931   545.726088     0.000000 
  24.187000   509.000000     0.001965   548.473880     0.000000 
  24.195000   523.000000     0.001912   551.374562     0.000000 
  24.203000   543.000000     0.001842   554.439699     0.000000 
  24.211000   524.000000     0.001908   557.681969     0.000000 
  24.219000   500.000000     0.002000   561.115296     0.000000 
  24.227000   544.000000     0.001838   564.754993     0.000000 
  24.235000   579.000000     0.001727   568.617938     0.000000 
  24.243000   535.000000     0.001869   572.722767     0.000000 
  24.251000   572.000000     0.001748   577.090097     0.000000 
  24.259000   551.000000     0.001815   581.742784     0.000000 
  24.267000   621.000000     0.001610   586.706223     0.000000 
  24.275000   566.000000     0.001767   592.008689     0.000000 
  24.283000   589.000000     0.001698   597.681742     0.000000 
  24.291000   564.000000     0.001773   603.760689     0.000000 
  24.299000   603.000000     0.001658   610.285136     0.000000 
  24.307000   691.000000     0.001447   617.299624     0.000000 
  24.315000   753.000000     0.001328   624.854385     0.000000 
  24.323000   787.000000     0.001271   633.006237     0.000000 
  24.331000   834.000000     0.001199   641.819642     0.000000 
  24.339000   955.000000     0.001047   651.367970     0.000000 
  24.347000  1024.000000     0.000977   661.735011     0.000000 
  24.355000  1098.000000     0.000911   673.016800     0.000000 
  24.363000  1162.000000     0.000861   685.323813     0.000000 
  24.371000  1188.000000     0.000842   698.783645     0.000000 
  24.379000  1229.000000     0.000814   713.544279     0.000000 
  24.387000  1270.000000     0.000787   729.778098     0.000000 
  24.395000  1352.000000     0.000740   747.686855     0.000000 
  24.403000  1418.000000     0.000705   767.507845     0.000000 
  24.411000  1420.000000     0.000704   789.521647     0.000000 
  24.419000  1467.000000     0.000682   814.061879     0.000000 
  24.427000  1497.000000     0.000668   841.527606     0.000000 
  24.435000  1651.000000     0.000606   872.399239     0.000000 
  24.443000  1801.000000     0.000555   907.259081     0.000000 
  24.451000  1998.000000     0.000501   946.818123     0.000000 
  24.459000  2305.000000     0.000434   991.951342     0.000000 
  24.467000  2531.000000     0.000395  1043.744667     0.000000 
  24.475000  2680.000000     0.000373  1103.558291     0.000000 
  24.483000  3143.000000     0.000318  1173.112935     0.000000 
  24.491000  3598.000000     0.000278  1254.610562     0.000000 
  24.499000  4128.000000     0.000242  1350.909805     0.000000 
  24.507000  4751.000000     0.000210  1465.804125     0.000000 
  24.515000  5095.000000     0.000196  1604.528623     0.000000 
  24.523000  5331.000000     0.000188  1774.831384     0.000000 
  24.531000  5597.000000     0.000179  1989.420817     0.000000 
  24.539000  6116.000000     0.000164  2271.431899     0.000000 
  24.547000  6569.000000     0.000152  2665.427276     0.000000 
  24.555000  7250.000000     0.000138  3256.035857     0.000000 
  24.563000  8319.000000     0.000120  4192.124580     0.000000 
  24.571000  9642.000000     0.000104  5704.547757     0.000000 
  24.579000  11016.000000     0.000091  8093.343583     0.000000 
  24.587000  12395.000000     0.000081  11657.285363     0.000000 
  24.595000  14209.000000     0.000070  16556.185160     0.000000 
  24.603000  16590.000000     0.000060  22620.656786     0.000000 
  24.611000  19972.000000     0.000050  29111.423738     0.000000 
  24.619000  24255.000000     0.000041  34457.097887     0.000000 
  24.627000  28705.000000     0.000035  36508.897515     0.000000 
  24.635000  30048.000000     0.000033  34178.949720     0.000000 
  24.643000  26617.000000     0.000038  28689.832889     0.000000 
  24.651000  19836.000000     0.000050  22188.308990     0.000000 
  24.659000  12656.000000     0.000079  16186.531103     0.000000 
  24.667000  7817.000000     0.000128  11376.631174     0.000000 
  24.675000  5290.000000     0.000189  7899.013127     0.000000 
  24.683000  3926.000000     0.000255  5579.037841     0.000000 
  24.691000  3050.000000     0.000328  4114.211742     0.000000 
  24.699000  2540.000000     0.000394  3207.662290     0.000000 
  24.707000  2045.000000     0.000489  2634.120219     0.000000 
  24.715000  2001.000000     0.000500  2249.759609     0.000000 
  24.723000  1933.000000     0.000517  1973.375778     0.000000 
  24.731000  1610.000000     0.000621  1762.343633     0.000000 
  24.739000  1300.000000     0.000769  1594.499381     0.000000 
  24.747000  1151.000000     0.000869  1457.595009     0.000000 
  24.755000  1126.000000     0.000888  1344.106707     0.000000 
  24.763000  1047.000000     0.000955  1248.920867     0.000000 
  24.771000   961.000000     0.001041  1168.319145     0.000000 
  24.779000   846.000000     0.001182  1099.494213     0.000000 
  24.787000   779.000000     0.001284  1040.281199     0.000000 
  24.795000   729.000000     0.001372   988.986905     0.000000 
  24.803000   697.000000     0.001435   944.271978     0.000000 
  24.811000   692.000000     0.001445   905.066434     0.000000 
  24.819000   649.000000     0.001541   870.507636     0.000000 
  24.827000   615.000000     0.001626   839.894233     0.000000 
  24.835000   558.000000     0.001792   812.651531     0.000000 
  24.843000   504.000000     0.001984   788.305166     0.000000 
  24.851000   484.000000     0.002066   766.460925     0.000000 
  24.859000   516.000000     0.001938   746.789108     0.000000 
  24.867000   481.000000     0.002079   729.012324     0.000000 
  24.875000   494.000000     0.002024   712.895888     0.000000 
  24.883000   504.000000     0.001984   698.240200     0.000000 
  24.891000   482.000000     0.002075   684.874658     0.000000 
  24.899000   467.000000     0.002141   672.652766     0.000000 
  24.907000   484.000000     0.002066   661.448174     0.000000 
  24.915000   446.000000     0.002242   651.151453     0.000000 
  24.923000   476.000000     0.002101   641.667456     0.000000 
  24.931000   484.000000     0.002066   632.913146     0.000000 
  24.939000   462.000000     0.002165   624.815795     0.000000 
  24.947000   461.000000     0.002169   617.311492     0.000000 
  24.955000   478.000000     0.002092   610.343893     0.000000 
  24.963000   465.000000     0.002151   603.863174     0.000000 
  24.971000   475.000000     0.002105   597.825146     0.000000 
  24.979000   483.000000     0.002070   592.190515     0.000000 
  24.987000   450.000000     0.002222   586.924238     0.000000 
  24.995000   468.000000     0.002137   581.994991     0.000000 
  25.003000   466.000000     0.002146   577.374704     0.000000 
  25.011000   458.000000     0.002183   573.038163     0.000000 
  25.019000   458.000000     0.002183   568.962671     0.000000 
  25.027000   450.000000     0.002222   565.127751     0.000000 
  25.035000   495.000000     0.002020   561.514893     0.000000 
  25.043000   554.000000     0.001805   558.107330     0.000000 
  25.051000   470.000000     0.002128   554.889846     0.000000 
  25.059000   487.000000     0.002053   551.848606     0.000000 
  25.067000   495.000000     0.002020   548.971012     0.000000 
  25.075000   503.000000     0.001988   546.245566     0.000000 
  25.083000   461.000000     0.002169   543.661766     0.000000 
  25.091000   469.000000     0.002132   541.209996     0.000000 
  25.099000   456.000000     0.002193   538.881443     0.000000 
  25.107000   489.000000     0.002045   536.668015     0.000000 
  25.115000   466.000000     0.002146   534.562275     0.000000 
  25.123000   450.000000     0.002222   532.557374     0.000000 
  25.131000   484.000000     0.002066   530.646999     0.000000 
  25.139000   467.000000     0.002141   528.825324     0.000000 
  25.147000   482.000000     0.002075   527.086964     0.000000 
  25.155000   462.000000     0.002165   525.426934     0.000000 
  25.163000   486.000000     0.002058   523.840620     0.000000 
  25.171000   455.000000     0.002198   522.323739     0.000000 
  25.179000   513.000000     0.001949   520.872317     0.000000 
  25.187000   469.000000     0.002132   519.482657     0.000000 
  25.195000   485.000000     0.002062   518.151321     0.000000 
  25.203000   444.000000     0.002252   516.875108     0.000000 
  25.211000   521.000000     0.001919   515.651030     0.000000 
  25.219000   491.000000     0.002037   514.476303     0.000000 
  25.227000   516.000000     0.001938   513.348321     0.000000 
  25.235000   568.000000     0.001761   512.264652     0.000000 
  25.243000   548.000000     0.001825   511.223019     0.000000 
  25.251000   584.000000     0.001712   510.221287     0.000000 
  25.259000   564.000000     0.001773   509.257458     0.000000 
  25.267000   584.000000     0.001712   508.329654     0.000000 
  25.275000   528.000000     0.001894   507.436116     0.000000 
  25.283000   535.000000     0.001869   506.575187     0.000000 
  25.291000   510.000000     0.001961   505.745311     0.000000 
  25.299000   492.000000     0.002033   504.945023     0.000000 
  25.307000   499.000000     0.002004   504.172945     0.000000 
  25.315000   460.000000     0.002174   503.427774     0.000000 
  25.323000   471.000000     0.002123   502.708287     0.000000 
  25.331000   462.000000     0.002165   502.013324     0.000000 
  25.339000   520.000000     0.001923   501.341795     0.000000 
  25.347000   479.000000     0.002088   500.692666     0.000000 
  25.355000   478.000000     0.002092   500.064961     0.000000 
  25.363000   504.000000     0.001984   499.457756     0.000000 
  25.371000   498.000000     0.002008   498.870176     0.000000 
  25.379000   522.000000     0.001916   498.301394     0.000000 
  25.387000   472.000000     0.002119   497.750624     0.000000 
  25.395000   463.000000     0.002160   497.217121     0.000000 
  25.403000   482.000000     0.002075   496.700179     0.000000 
  25.411000   474.000000     0.002110   496.199127     0.000000 
  25.419000   459.000000     0.002179   495.713328     0.000000 
  25.427000   476.000000     0.002101   495.242177     0.000000 
  25.435000   483.000000     0.002070   494.785096     0.000000 
  25.443000   449.000000     0.002227   494.341539     0.000000 
  25.451000   492.000000     0.002033   493.910984     0.000000 
  25.459000   461.000000     0.002169   493.492935     0.000000 
  25.467000   452.000000     0.002212   493.086918     0.000000 
  25.475000   491.000000     0.002037   471.738066     0.000000 
  25.483000   478.000000     0.002092   471.744055     0.000000 
  25.491000   456.000000     0.002193   471.750041     0.000000 
  25.499000   474.000000     0.002110   471.756025     0.000000 
  25.507000   481.000000     0.002079   471.762006     0.000000 
  25.515000   490.000000     0.002041   471.767985     0.000000 
  25.523000   510.000000     0.001961   471.773962     0.000000 
  25.531000   548.000000     0.001825   471.779936     0.000000 
  25.539000   532.000000     0.001880   471.785908     0.000000 
  25.547000   456.000000     0.002193   471.791877     0.000000 
  25.555000   491.000000     0.002037   471.797844     0.000000 
  25.563000   461.000000     0.002169   471.803809     0.000000 
  25.571000   455.000000     0.002198   471.809771     0.000000 
  25.579000   495.000000     0.002020   471.815730     0.000000 
  25.587000   487.000000     0.002053   471.821687     0.000000 
  25.595000   467.000000     0.002141   471.827642     0.000000 
  25.603000   460.000000     0.002174   471.833595     0.000000 
  25.611000   516.000000     0.001938   471.839545     0.000000 
  25.619000   476.000000     0.002101   471.845492     0.000000 
  25.627000   470.000000     0.002128   471.851437     0.000000 
  25.635000   485.000000     0.002062   471.857380     0.000000 
  25.643000   486.000000     0.002058   471.863320     0.000000 
  25.651000   498.000000     0.002008   471.869258     0.000000 
  25.659000   463.000000     0.002160   471.875193     0.000000 
  25.667000   493.000000     0.002028   471.881126     0.000000 
  25.675000   464.000000     0.002155   471.887056     0.000000 
  25.683000   496.000000     0.002016   471.892984     0.000000 
  25.691000   473.000000     0.002114   471.898910     0.000000 
  25.699000   516.000000     0.001938   471.904833     0.000000 
  25.707000   507.000000     0.001972   471.910753     0.000000 
  25.715000   461.000000     0.002169   471.916672     0.000000 
  25.723000   459.000000     0.002179   471.922587     0.000000 
  25.731000   467.000000     0.002141   471.928501     0.000000 
  25.739000   464.000000     0.002155   471.934412     0.000000 
  25.747000   499.000000     0.002004   471.940320     0.000000 
  25.755000   497.000000     0.002012   471.946226     0.000000 
  25.763000   514.000000     0.001946   471.952129     0.000000 
  25.771000   477.000000     0.002096   471.958030     0.000000 
  25.779000   492.000000     0.002033   471.963929     0.000000 
  25.787000   454.000000     0.002203   471.969825     0.000000 
  25.795000   505.000000     0.001980   471.975719     0.000000 
  25.803000   492.000000     0.002033   471.981610     0.000000 
  25.811000   492.000000     0.002033   471.987498     0.000000 
  25.819000   522.000000     0.001916   471.993385     0.000000 
  25.827000   472.000000     0.002119   471.999268     0.000000 
  25.835000   518.000000     0.001931   472.005150     0.000000 
  25.843000   464.000000     0.002155   472.011029     0.000000 
  25.851000   552.000000     0.001812   472.016905     0.000000 
  25.859000   555.000000     0.001802   472.022779     0.000000 
  25.867000   498.000000     0.002008   472.028650     0.000000 
  25.875000   496.000000     0.002016   472.034519     0.000000 
  25.883000   502.000000     0.001992   472.040385     0.000000 
  25.891000   523.000000     0.001912   472.046249     0.000000 
  25.899000   523.000000     0.001912   472.052111     0.000000 
  25.907000   523.000000     0.001912   472.057970     0.000000 
  25.915000   444.000000     0.002252   472.063826     0.000000 
  25.923000   441.000000     0.002268   472.069680     0.000000 
  25.931000   454.000000     0.002203   472.075532     0.000000 
  25.939000   436.000000     0.002294   472.081381     0.000000 
  25.947000   458.000000     0.002183   472.087227     0.000000 
  25.955000   487.000000     0.002053   472.093072     0.000000 
  25.963000   481.000000     0.002079   472.098913     0.000000 
  25.971000   483.000000     0.002070   472.104752     0.000000 
  25.979000   465.000000     0.002151   472.110589     0.000000 
  25.987000   457.000000     0.002188   472.116423     0.000000 
  25.995000   505.000000     0.001980   472.122254     0.000000 
  26.003000   487.000000     0.002053   472.128083     0.000000 
  26.011000   448.000000     0.002232   472.133910     0.000000 
  26.019000   439.000000     0.002278   472.139734     0.000000 
  26.027000   465.000000     0.002151   472.145556     0.000000 
  26.035000   446.000000     0.002242   472.151375     0.000000 
  26.043000   437.000000     0.002288   472.157191     0.000000 
  26.051000   477.000000     0.002096   472.163005     0.000000 
  26.059000   448.000000     0.002232   472.168817     0.000000 
  26.067000   463.000000     0.002160   472.174626     0.000000 
  26.075000   483.000000     0.002070   472.180432     0.000000 
  26.083000   473.000000     0.002114   472.186236     0.000000 
  26.091000   461.000000     0.002169   472.192038     0.000000 
  26.099000   495.000000     0.002020   472.197837     0.000000 
  26.107000   500.000000     0.002000   472.203633     0.000000 
  26.115000   474.000000     0.002110   472.209427     0.000000 
  26.123000   454.000000     0.002203   472.215218     0.000000 
  26.131000   492.000000     0.002033   472.221007     0.000000 
  26.139000   496.000000     0.002016   472.226793     0.000000 
  26.147000   490.000000     0.002041   472.232577     0.000000 
  26.155000   507.000000     0.001972   472.238359     0.000000 
  26.163000   464.000000     0.002155   472.244137     0.000000 
  26.171000   483.000000     0.002070   472.249914     0.000000 
  26.179000   467.000000     0.002141   472.255687     0.000000 
  26.187000   489.000000     0.002045   472.261458     0.000000 
  26.195000   482.000000     0.002075   472.267227     0.000000 
  26.203000   492.000000     0.002033   472.272993     0.000000 
  26.211000   487.000000     0.002053   472.278757     0.000000 
  26.219000   465.000000     0.002151   472.284518     0.000000 
  26.227000   477.000000     0.002096   472.290276     0.000000 
  26.235000   554.000000     0.001805   472.296032     0.000000 
  26.243000   525.000000     0.001905   472.301785     0.000000 
  26.251000   480.000000     0.002083   472.307536     0.000000 
  26.259000   479.000000     0.002088   472.313285     0.000000 
  26.267000   493.000000     0.002028   472.319030     0.000000 
  26.275000   461.000000     0.002169   472.324774     0.000000 
  26.283000   461.000000     0.002169   472.330514     0.000000 
  26.291000   496.000000     0.002016   472.336252     0.000000 
  26.299000   473.000000     0.002114   472.341988     0.000000 
  26.307000   482.000000     0.002075   472.347721     0.000000 
  26.315000   456.000000     0.002193   472.353451     0.000000 
  26.323000   481.000000     0.002079   472.359179     0.000000 
  26.331000   461.000000     0.002169   472.364905     0.000000 
  26.339000   506.000000     0.001976   472.370627     0.000000 
  26.347000   498.000000     0.002008   472.376348     0.000000 
  26.355000   431.000000     0.002320   472.382065     0.000000 
  26.363000   499.000000     0.002004   472.387780     0.000000 
  26.371000   510.000000     0.001961   472.393493     0.000000 
  26.379000   480.000000     0.002083   472.399203     0.000000 
  26.387000   520.000000     0.001923   472.404910     0.000000 
  26.395000   480.000000     0.002083   472.410615     0.000000 
  26.403000   466.000000     0.002146   472.416317     0.000000 
  26.411000   464.000000     0.002155   472.422017     0.000000 
  26.419000   535.000000     0.001869   472.427714     0.000000 
  26.427000   505.000000     0.001980   472.433409     0.000000 
  26.435000   469.000000     0.002132   472.439100     0.000000 
  26.443000   496.000000     0.002016   472.444790     0.000000 
  26.451000   475.000000     0.002105   472.450477     0.000000 
  26.459000   485.000000     0.002062   472.456161     0.000000 
  26.467000   529.000000     0.001890   472.461843     0.000000 
  26.475000   504.000000     0.001984   472.467522     0.000000 
  26.483000   487.000000     0.002053   472.473198     0.000000 
  26.491000   458.000000     0.002183   472.478872     0.000000 
  26.499000   483.000000     0.002070   472.484543     0.000000 
  26.507000   496.000000     0.002016   472.490212     0.000000 
  26.515000   493.000000     0.002028   472.495878     0.000000 
  26.523000   422.000000     0.002370   472.501542     0.000000 
  26.531000   497.000000     0.002012   472.507203     0.000000 
  26.539000   470.000000     0.002128   472.512861     0.000000 
  26.547000   502.000000     0.001992   472.518517     0.000000 
  26.555000   487.000000     0.002053   472.524170     0.000000 
  26.563000   479.000000     0.002088   472.529821     0.000000 
  26.571000   480.000000     0.002083   472.535468     0.000000 
  26.579000   515.000000     0.001942   472.541114     0.000000 
  26.587000   566.000000     0.001767   472.546757     0.000000 
  26.595000   546.000000     0.001832   472.552397     0.000000 
  26.603000   562.000000     0.001779   472.558034     0.000000 
  26.611000   543.000000     0.001842   472.563669     0.000000 
  26.619000   559.000000     0.001789   472.569302     0.000000 
  26.627000   579.000000     0.001727   472.574931     0.000000 
  26.635000   534.000000     0.001873   472.580559     0.000000 
  26.643000   502.000000     0.001992   472.586183     0.000000 
  26.651000   536.000000     0.001866   472.591805     0.000000 
  26.659000   565.000000     0.001770   472.597424     0.000000 
  26.667000   543.000000     0.001842   472.603041     0.000000 
  26.675000   554.000000     0.001805   472.608655     0.000000 
  26.683000   543.000000     0.001842   472.614267     0.000000 
  26.691000   481.000000     0.002079   472.619875     0.000000 
  26.699000   448.000000     0.002232   472.625482     0.000000 
  26.707000   536.000000     0.001866   472.631085     0.000000 
  26.715000   518.000000     0.001931   472.636686     0.000000 
  26.723000   538.000000     0.001859   472.642285     0.000000 
  26.731000   488.000000     0.002049   472.647880     0.000000 
  26.739000   499.000000     0.002004   472.653474     0.000000 
  26.747000   463.000000     0.002160   472.659064     0.000000 
  26.755000   498.000000     0.002008   472.664652     0.000000 
  26.763000   517.000000     0.001934   472.670237     0.000000 
  26.771000   539.000000     0.001855   472.675820     0.000000 
  26.779000   542.000000     0.001845   472.681400     0.000000 
  26.787000   537.000000     0.001862   472.686977     0.000000 
  26.795000   580.000000     0.001724   472.692552     0.000000 
  26.803000   581.000000     0.001721   472.698124     0.000000 
  26.811000   540.000000     0.001852   472.703693     0.000000 
  26.819000   521.000000     0.001919   472.709260     0.000000 
  26.827000   512.000000     0.001953   472.714824     0.000000 
  26.835000   505.000000     0.001980   472.720386     0.000000 
  26.843000   500.000000     0.002000   472.725944     0.000000 
  26.851000   496.000000     0.002016   472.731501     0.000000 
  26.859000   498.000000     0.002008   472.737054     0.000000 
  26.867000   511.000000     0.001957   472.742605     0.000000 
  26.875000   496.000000     0.002016   472.748153     0.000000 
  26.883000   543.000000     0.001842   472.753699     0.000000 
  26.891000   530.000000     0.001887   472.759242     0.000000 
  26.899000   535.000000     0.001869   472.764782     0.000000 
  26.907000   541.000000     0.001848   472.770320     0.000000 
  26.915000   550.000000     0.001818   472.775855     0.000000 
  26.923000   531.000000     0.001883   472.781388     0.000000 
  26.931000   524.000000     0.001908   472.786917     0.000000 
  26.939000   535.000000     0.001869   472.792444     0.000000 
  26.947000   538.000000     0.001859   472.797969     0.000000 
  26.955000   520.000000     0.001923   472.803490     0.000000 
  26.963000   516.000000     0.001938   472.809009     0.000000 
  26.971000   498.000000     0.002008   472.814526     0.000000 
  26.979000   500.000000     0.002000   472.820040     0.000000 
  26.987000   459.000000     0.002179   472.825551     0.000000 
  26.995000   461.000000     0.002169   472.831059     0.000000 
  27.003000   468.000000     0.002137   472.836565     0.000000 
  27.011000   478.000000     0.002092   472.842068     0.000000 
  27.019000   554.000000     0.001805   472.847568     0.000000 
  27.027000   579.000000     0.001727   472.853066     0.000000 
  27.035000   518.000000     0.001931   472.858561     0.000000 
  27.043000   511.000000     0.001957   472.864054     0.000000 
  27.051000   562.000000     0.001779   472.869543     0.000000 
  27.059000   571.000000     0.001751   472.875030     0.000000 
  27.067000   558.000000     0.001792   472.880515     0.000000 
  27.075000   545.000000     0.001835   472.885996     0.000000 
  27.083000   511.000000     0.001957   472.891475     0.000000 
  27.091000   498.000000     0.002008   472.896952     0.000000 
  27.099000   481.000000     0.002079   472.902425     0.000000 
  27.107000   538.000000     0.001859   472.907896     0.000000 
  27.115000   541.000000     0.001848   472.913365     0.000000 
  27.123000   442.000000     0.002262   472.918830     0.000000 
  27.131000   476.000000     0.002101   472.924293     0.000000 
  27.139000   497.000000     0.002012   472.929753     0.000000 
  27.147000   506.000000     0.001976   472.935211     0.000000 
  27.155000   519.000000     0.001927   472.940666     0.000000 
  27.163000   510.000000     0.001961   472.946118     0.000000 
  27.171000   480.000000     0.002083   472.951567     0.000000 
  27.179000   480.000000     0.002083   472.957014     0.000000 
  27.187000   539.000000     0.001855   472.962458     0.000000 
  27.195000   542.000000     0.001845   472.967899     0.000000 
  27.203000   512.000000     0.001953   472.973338     0.000000 
  27.211000   523.000000     0.001912   472.978774     0.000000 
  27.219000   539.000000     0.001855   472.984207     0.000000 
  27.227000   579.000000     0.001727   472.989638     0.000000 
  27.235000   552.000000     0.001812   472.995065     0.000000 
  27.243000   569.000000     0.001757   473.000491     0.000000 
  27.251000   567.000000     0.001764   473.005913     0.000000 
  27.259000   496.000000     0.002016   473.011333     0.000000 
  27.267000   496.000000     0.002016   473.016750     0.000000 
  27.275000   518.000000     0.001931   473.022164     0.000000 
  27.283000   476.000000     0.002101   473.027576     0.000000 
  27.291000   483.000000     0.002070   473.032984     0.000000 
  27.299000   444.000000     0.002252   473.038391     0.000000 
  27.307000   477.000000     0.002096   473.043794     0.000000 
  27.315000   566.000000     0.001767   473.049195     0.000000 
  27.323000   498.000000     0.002008   473.054593     0.000000 
  27.331000   534.000000     0.001873   473.059988     0.000000 
  27.339000   493.000000     0.002028   473.065381     0.000000 
  27.347000   492.000000     0.002033   473.070771     0.000000 
  27.355000   494.000000     0.002024   473.076158     0.000000 
  27.363000   557.000000     0.001795   473.081542     0.000000 
  27.371000   566.000000     0.001767   473.086924     0.000000 
  27.379000   521.000000     0.001919   473.092303     0.000000 
  27.387000   515.000000     0.001942   473.097679     0.000000 
  27.395000   504.000000     0.001984   473.103052     0.000000 
  27.403000   491.000000     0.002037   473.108423     0.000000 
  27.411000   549.000000     0.001821   473.113791     0.000000 
  27.419000   556.000000     0.001799   473.119157     0.000000 
  27.427000   488.000000     0.002049   473.124519     0.000000 
  27.435000   436.000000     0.002294   473.129879     0.000000 
  27.443000   435.000000     0.002299   473.135236     0.000000 
  27.451000   537.000000     0.001862   473.140590     0.000000 
  27.459000   570.000000     0.001754   473.145942     0.000000 
  27.467000   541.000000     0.001848   473.151291     0.000000 
  27.475000   500.000000     0.002000   473.156637     0.000000 
  27.483000   458.000000     0.002183   473.161980     0.000000 
  27.491000   506.000000     0.001976   473.167321     0.000000 
  27.499000   541.000000     0.001848   473.172659     0.000000 
  27.507000   514.000000     0.001946   473.177994     0.000000 
  27.515000   575.000000     0.001739   473.183327     0.000000 
  27.523000   487.000000     0.002053   473.188656     0.000000 
  27.531000   490.000000     0.002041   473.193983     0.000000 
  27.539000   507.000000     0.001972   473.199307     0.000000 
  27.547000   498.000000     0.002008   473.204629     0.000000 
  27.555000   514.000000     0.001946   473.209947     0.000000 
  27.563000   511.000000     0.001957   473.215263     0.000000 
  27.571000   473.000000     0.002114   473.220577     0.000000 
  27.579000   460.000000     0.002174   473.225887     0.000000 
  27.587000   482.000000     0.002075   473.231195     0.000000 
  27.595000   538.000000     0.001859   473.236500     0.000000 
  27.603000   544.000000     0.001838   473.241802     0.000000 
  27.611000   497.000000     0.002012   473.247101     0.000000 
  27.619000   508.000000     0.001969   473.252398     0.000000 
  27.627000   568.000000     0.001761   473.257692     0.000000 
  27.635000   529.000000     0.001890   473.262983     0.000000 
  27.643000   549.000000     0.001821   473.268271     0.000000 
  27.651000   564.000000     0.001773   473.273556     0.000000 
  27.659000   478.000000     0.002092   473.278839     0.000000 
  27.667000   469.000000     0.002132   473.284119     0.000000 
  27.675000   535.000000     0.001869   473.289397     0.000000 
  27.683000   549.000000     0.001821   473.294671     0.000000 
  27.691000   510.000000     0.001961   473.299943     0.000000 
  27.699000   466.000000     0.002146   473.305212     0.000000 
  27.707000   479.000000     0.002088   473.310478     0.000000 
  27.715000   485.000000     0.002062   473.315741     0.000000 
  27.723000   507.000000     0.001972   473.321002     0.000000 
  27.731000   535.000000     0.001869   473.326260     0.000000 
  27.739000   520.000000     0.001923   473.331515     0.000000 
  27.747000   515.000000     0.001942   473.336767     0.000000 
  27.755000   517.000000     0.001934   473.342016     0.000000 
  27.763000   519.000000     0.001927   473.347263     0.000000 
  27.771000   536.000000     0.001866   473.352507     0.000000 
  27.779000   502.000000     0.001992   473.357748     0.000000 
  27.787000   478.000000     0.002092   473.362986     0.000000 
  27.795000   507.000000     0.001972   473.368222     0.000000 
  27.803000   468.000000     0.002137   473.373455     0.000000 
  27.811000   490.000000     0.002041   473.378685     0.000000 
  27.819000   474.000000     0.002110   473.383912     0.000000 
  27.827000   506.000000     0.001976   473.389136     0.000000 
  27.835000   549.000000     0.001821   473.394358     0.000000 
  27.843000   494.000000     0.002024   473.399577     0.000000 
  27.851000   440.000000     0.002273   473.404793     0.000000 
  27.859000   493.000000     0.002028   473.410006     0.000000 
  27.867000   564.000000     0.001773   473.415216     0.000000 
  27.875000   505.000000     0.001980   473.420424     0.000000 
  27.883000   502.000000     0.001992   473.425629     0.000000 
  27.891000   519.000000     0.001927   473.430831     0.000000 
  27.899000   494.000000     0.002024   473.436030     0.000000 
  27.907000   498.000000     0.002008   473.441226     0.000000 
  27.915000   524.000000     0.001908   473.446420     0.000000 
  27.923000   532.000000     0.001880   473.451611     0.000000 
  27.931000   503.000000     0.001988   473.456799     0.000000 
  27.939000   478.000000     0.002092   473.461984     0.000000 
  27.947000   506.000000     0.001976   473.467166     0.000000 
  27.955000   502.000000     0.001992   473.472346     0.000000 
  27.963000   471.000000     0.002123   473.477523     0.000000 
  27.971000   494.000000     0.002024   473.482697     0.000000 
  27.979000   519.000000     0.001927   473.487868     0.000000 
  27.987000   458.000000     0.002183   473.493036     0.000000 
  27.995000   497.000000     0.002012   473.498202     0.000000 
  28.003000   574.000000     0.001742   473.503364     0.000000 
  28.011000   556.000000     0.001799   473.508524     0.000000 
  28.019000   506.000000     0.001976   473.513681     0.000000 
  28.027000   502.000000     0.001992   473.518835     0.000000 
  28.035000   539.000000     0.001855   473.523987     0.000000 
  28.043000   547.000000     0.001828   473.529135     0.000000 
  28.051000   460.000000     0.002174   473.534281     0.000000 
  28.059000   510.000000     0.001961   473.539424     0.000000 
  28.067000   483.000000     0.002070   473.544564     0.000000 
  28.075000   490.000000     0.002041   473.549701     0.000000 
  28.083000   505.000000     0.001980   473.554836     0.000000 
  28.091000   498.000000     0.002008   473.559967     0.000000 
  28.099000   486.000000     0.002058   473.565096     0.000000 
  28.107000   518.000000     0.001931   473.570222     0.000000 
  28.115000   514.000000     0.001946   473.575345     0.000000 
  28.123000   557.000000     0.001795   473.580466     0.000000 
  28.131000   524.000000     0.001908   473.585583     0.000000 
  28.139000   499.000000     0.002004   473.590698     0.000000 
  28.147000   519.000000     0.001927   473.595809     0.000000 
  28.155000   510.000000     0.001961   473.600918     0.000000 
  28.163000   491.000000     0.002037   473.606025     0.000000 
  28.171000   521.000000     0.001919   473.611128     0.000000 
  28.179000   443.000000     0.002257   473.616228     0.000000 
  28.187000   491.000000     0.002037   473.621326     0.000000 
  28.195000   449.000000     0.002227   473.626420     0.000000 
  28.203000   514.000000     0.001946   473.631512     0.000000 
  28.211000   521.000000     0.001919   473.636601     0.000000 
  28.219000   482.000000     0.002075   473.641688     0.000000 
  28.227000   474.000000     0.002110   473.646771     0.000000 
  28.235000   487.000000     0.002053   473.651851     0.000000 
  28.243000   480.000000     0.002083   473.656929     0.000000 
  28.251000   492.000000     0.002033   473.662004     0.000000 
  28.259000   456.000000     0.002193   473.667076     0.000000 
  28.267000   472.000000     0.002119   473.672145     0.000000 
  28.275000   462.000000     0.002165   473.677211     0.000000 
  28.283000   486.000000     0.002058   473.682275     0.000000 
  28.291000   534.000000     0.001873   473.687335     0.000000 
  28.299000   549.000000     0.001821   473.692393     0.000000 
  28.307000   508.000000     0.001969   473.697448     0.000000 
  28.315000   499.000000     0.002004   473.702499     0.000000 
  28.323000   484.000000     0.002066   473.707549     0.000000 
  28.331000   507.000000     0.001972   473.712595     0.000000 
  28.339000   528.000000     0.001894   473.717638     0.000000 
  28.347000   477.000000     0.002096   473.722679     0.000000 
  28.355000   434.000000     0.002304   473.727716     0.000000 
  28.363000   490.000000     0.002041   473.732751     0.000000 
  28.371000   462.000000     0.002165   473.737783     0.000000 
  28.379000   461.000000     0.002169   473.742812     0.000000 
  28.387000   524.000000     0.001908   473.747838     0.000000 
  28.395000   503.000000     0.001988   473.752861     0.000000 
  28.403000   483.000000     0.002070   473.757882     0.000000 
  28.411000   466.000000     0.002146   473.762899     0.000000 
  28.419000   476.000000     0.002101   473.767914     0.000000 
  28.427000   515.000000     0.001942   473.772926     0.000000 
  28.435000   512.000000     0.001953   473.777935     0.000000 
  28.443000   479.000000     0.002088   473.782941     0.000000 
  28.451000   505.000000     0.001980   473.787944     0.000000 
  28.459000   440.000000     0.002273   473.792944     0.000000 
  28.467000   441.000000     0.002268   473.797942     0.000000 
  28.475000   544.000000     0.001838   473.802936     0.000000 
  28.483000   538.000000     0.001859   473.807928     0.000000 
  28.491000   509.000000     0.001965   473.812916     0.000000 
  28.499000   468.000000     0.002137   473.817902     0.000000 
  28.507000   494.000000     0.002024   473.822885     0.000000 
  28.515000   548.000000     0.001825   473.827865     0.000000 
  28.523000   501.000000     0.001996   473.832843     0.000000 
  28.531000   517.000000     0.001934   473.837817     0.000000 
  28.539000   531.000000     0.001883   473.842788     0.000000 
  28.547000   457.000000     0.002188   473.847757     0.000000 
  28.555000   457.000000     0.002188   473.852723     0.000000 
  28.563000   459.000000     0.002179   473.857685     0.000000 
  28.571000   471.000000     0.002123   473.862645     0.000000 
  28.579000   458.000000     0.002183   473.867602     0.000000 
  28.587000   418.000000     0.002392   473.872556     0.000000 
  28.595000   509.000000     0.001965   473.877507     0.000000 
  28.603000   485.000000     0.002062   473.882456     0.000000 
  28.611000   505.000000     0.001980   473.887401     0.000000 
  28.619000   494.000000     0.002024   473.892343     0.000000 
  28.627000   520.000000     0.001923   473.897283     0.000000 
  28.635000   519.000000     0.001927   473.902220     0.000000 
  28.643000   460.000000     0.002174   473.907153     0.000000 
  28.651000   468.000000     0.002137   473.912084     0.000000 
  28.659000   511.000000     0.001957   473.917012     0.000000 
  28.667000   494.000000     0.002024   473.921937     0.000000 
  28.675000   491.000000     0.002037   473.926859     0.000000 
  28.683000   472.000000     0.002119   473.931779     0.000000 
  28.691000   511.000000     0.001957   473.936695     0.000000 
  28.699000   480.000000     0.002083   473.941608     0.000000 
  28.707000   436.000000     0.002294   473.946519     0.000000 
  28.715000   486.000000     0.002058   473.951426     0.000000 
  28.723000   514.000000     0.001946   473.956331     0.000000 
  28.731000   518.000000     0.001931   473.961233     0.000000 
  28.739000   538.000000     0.001859   473.966132     0.000000 
  28.747000   503.000000     0.001988   473.971028     0.000000 
  28.755000   493.000000     0.002028   473.975921     0.000000 
  28.763000   481.000000     0.002079   473.980811     0.000000 
  28.771000   531.000000     0.001883   473.985698     0.000000 
  28.779000   544.000000     0.001838   473.990582     0.000000 
  28.787000   449.000000     0.002227   473.995463     0.000000 
  28.795000   442.000000     0.002262   474.000342     0.000000 
  28.803000   510.000000     0.001961   474.005217     0.000000 
  28.811000   495.000000     0.002020   474.010090     0.000000 
  28.819000   521.000000     0.001919   474.014960     0.000000 
  28.827000   536.000000     0.001866   474.019826     0.000000 
  28.835000   456.000000     0.002193   474.024690     0.000000 
  28.843000   441.000000     0.002268   474.029551     0.000000 
  28.851000   451.000000     0.002217   474.034409     0.000000 
  28.859000   497.000000     0.002012   474.039264     0.000000 
  28.867000   506.000000     0.001976   474.044116     0.000000 
  28.875000   488.000000     0.002049   474.048965     0.000000 
  28.883000   499.000000     0.002004   474.053811     0.000000 
  28.891000   491.000000     0.002037   474.058654     0.000000 
  28.899000   500.000000     0.002000   474.063495     0.000000 
  28.907000   538.000000     0.001859   474.068332     0.000000 
  28.915000   512.000000     0.001953   474.073166     0.000000 
  28.923000   490.000000     0.002041   474.077998     0.000000 
  28.931000   495.000000     0.002020   474.082826     0.000000 
  28.939000   522.000000     0.001916   474.087652     0.000000 
  28.947000   489.000000     0.002045   474.092475     0.000000 
  28.955000   486.000000     0.002058   474.097294     0.000000 
  28.963000   485.000000     0.002062   474.102111     0.000000 
  28.971000   451.000000     0.002217   474.106925     0.000000 
  28.979000   454.000000     0.002203   474.111736     0.000000 
  28.987000   442.000000     0.002262   474.116544     0.000000 
  28.995000   483.000000     0.002070   474.121349     0.000000 
  29.003000   415.000000     0.002410   474.126151     0.000000 
  29.011000   425.000000     0.002353   474.130950     0.000000 
  29.019000   457.000000     0.002188   474.135746     0.000000 
  29.027000   476.000000     0.002101   474.140539     0.000000 
  29.035000   483.000000     0.002070   474.145330     0.000000 
  29.043000   494.000000     0.002024   474.150117     0.000000 
  29.051000   532.000000     0.001880   474.154901     0.000000 
  29.059000   475.000000     0.002105   474.159683     0.000000 
  29.067000   464.000000     0.002155   474.164461     0.000000 
  29.075000   480.000000     0.002083   474.169237     0.000000 
  29.083000   482.000000     0.002075   474.174009     0.000000 
  29.091000   516.000000     0.001938   474.178779     0.000000 
  29.099000   513.000000     0.001949   474.183545     0.000000 
  29.107000   460.000000     0.002174   474.188309     0.000000 
  29.115000   487.000000     0.002053   474.193069     0.000000 
  29.123000   516.000000     0.001938   474.197827     0.000000 
  29.131000   478.000000     0.002092   474.202582     0.000000 
  29.139000   438.000000     0.002283   474.207334     0.000000 
  29.147000   400.000000     0.002500   474.212082     0.000000 
  29.155000   500.000000     0.002000   474.216828     0.000000 
  29.163000   427.000000     0.002342   474.221571     0.000000 
  29.171000   488.000000     0.002049   474.226311     0.000000 
  29.179000   491.000000     0.002037   474.231048     0.000000 
  29.187000   459.000000     0.002179   474.235782     0.000000 
  29.195000   439.000000     0.002278   474.240513     0.000000 
  29.203000   462.000000     0.002165   474.245241     0.000000 
  29.211000   497.000000     0.002012   474.249966     0.000000 
  29.219000   513.000000     0.001949   474.254688     0.000000 
  29.227000   479.000000     0.002088   474.259407     0.000000 
  29.235000   492.000000     0.002033   474.264123     0.000000 
  29.243000   496.000000     0.002016   474.268836     0.000000 
  29.251000   494.000000     0.002024   474.273546     0.000000 
  29.259000   478.000000     0.002092   474.278254     0.000000 
  29.267000   498.000000     0.002008   474.282958     0.000000 
  29.275000   475.000000     0.002105   474.287659     0.000000 
  29.283000   458.000000     0.002183   474.292357     0.000000 
  29.291000   495.000000     0.002020   474.297052     0.000000 
  29.299000   503.000000     0.001988   474.301745     0.000000 
  29.307000   476.000000     0.002101   474.306434     0.000000 
  29.315000   453.000000     0.002208   474.311120     0.000000 
  29.323000   463.000000     0.002160   474.315804     0.000000 
  29.331000   456.000000     0.002193   474.320484     0.000000 
  29.339000   499.000000     0.002004   474.325161     0.000000 
  29.347000   484.000000     0.002066   474.329835     0.000000 
  29.355000   471.000000     0.002123   474.334507     0.000000 
  29.363000   490.000000     0.002041   474.339175     0.000000 
  29.371000   464.000000     0.002155   474.343840     0.000000 
  29.379000   497.000000     0.002012   474.348503     0.000000 
  29.387000   445.000000     0.002247   474.353162     0.000000 
  29.395000   504.000000     0.001984   474.357819     0.000000 
  29.403000   478.000000     0.002092   474.362472     0.000000 
  29.411000   472.000000     0.002119   474.367122     0.000000 
  29.419000   522.000000     0.001916   474.371770     0.000000 
  29.427000   536.000000     0.001866   474.376414     0.000000 
  29.435000   491.000000     0.002037   474.381055     0.000000 
  29.443000   480.000000     0.002083   474.385694     0.000000 
  29.451000   482.000000     0.002075   474.390329     0.000000 
  29.459000   488.000000     0.002049   474.394961     0.000000 
  29.467000   465.000000     0.002151   474.399591     0.000000 
  29.475000   455.000000     0.002198   474.404217     0.000000 
  29.483000   480.000000     0.002083   474.408840     0.000000 
  29.491000   495.000000     0.002020   474.413461     0.000000 
  29.499000   409.000000     0.002445   474.418078     0.000000 
  29.507000   439.000000     0.002278   474.422692     0.000000 
  29.515000   494.000000     0.002024   474.427304     0.000000 
  29.523000   518.000000     0.001931   474.431912     0.000000 
  29.531000   520.000000     0.001923   474.436517     0.000000 
  29.539000   505.000000     0.001980   474.441120     0.000000 
  29.547000   474.000000     0.002110   474.445719     0.000000 
  29.555000   518.000000     0.001931   474.450315     0.000000 
  29.563000   477.000000     0.002096   474.454908     0.000000 
  29.571000   490.000000     0.002041   474.459498     0.000000 
  29.579000   503.000000     0.001988   474.464086     0.000000 
  29.587000   503.000000     0.001988   474.468670     0.000000 
  29.595000   475.000000     0.002105   474.473251     0.000000 
  29.603000   470.000000     0.002128   474.477829     0.000000 
  29.611000   442.000000     0.002262   474.482404     0.000000 
  29.619000   453.000000     0.002208   474.486976     0.000000 
  29.627000   465.000000     0.002151   474.491545     0.000000 
  29.635000   501.000000     0.001996   474.496111     0.000000 
  29.643000   553.000000     0.001808   474.500674     0.000000 
  29.651000   530.000000     0.001887   474.505234     0.000000 
  29.659000   502.000000     0.001992   474.509791     0.000000 
  29.667000   527.000000     0.001898   474.514345     0.000000 
  29.675000   474.000000     0.002110   474.518896     0.000000 
  29.683000   506.000000     0.001976   474.523444     0.000000 
  29.691000   501.000000     0.001996   474.527989     0.000000 
  29.699000   524.000000     0.001908   474.532531     0.000000 
  29.707000   437.000000     0.002288   474.537070     0.000000 
  29.715000   436.000000     0.002294   474.541605     0.000000 
  29.723000   429.000000     0.002331   474.546138     0.000000 
  29.731000   442.000000     0.002262   474.550668     0.000000 
  29.739000   509.000000     0.001965   474.555194     0.000000 
  29.747000   432.000000     0.002315   474.559718     0.000000 
  29.755000   468.000000     0.002137   474.564239     0.000000 
  29.763000   438.000000     0.002283   474.568756     0.000000 
  29.771000   436.000000     0.002294   474.573271     0.000000 
  29.779000   481.000000     0.002079   474.577782     0.000000 
  29.787000   503.000000     0.001988   474.582291     0.000000 
  29.795000   502.000000     0.001992   474.586796     0.000000 
  29.803000   510.000000     0.001961   474.591298     0.000000 
  29.811000   469.000000     0.002132   474.595798     0.000000 
  29.819000   500.000000     0.002000   474.600294     0.000000 
  29.827000   532.000000     0.001880   474.604787     0.000000 
  29.835000   514.000000     0.001946   474.609277     0.000000 
  29.843000   507.000000     0.001972   474.613764     0.000000 
  29.851000   507.000000     0.001972   474.618248     0.000000 
  29.859000   526.000000     0.001901   474.622729     0.000000 
  29.867000   486.000000     0.002058   474.627207     0.000000 
  29.875000   480.000000     0.002083   474.631682     0.000000 
  29.883000   466.000000     0.002146   474.636154     0.000000 
  29.891000   513.000000     0.001949   474.640623     0.000000 
  29.899000   476.000000     0.002101   474.645089     0.000000 
  29.907000   491.000000     0.002037   474.649551     0.000000 
  29.915000   512.000000     0.001953   474.654011     0.000000 
  29.923000   469.000000     0.002132   474.658468     0.000000 
  29.931000   469.000000     0.002132   474.662921     0.000000 
  29.939000   496.000000     0.002016   474.667372     0.000000 
  29.947000   517.000000     0.001934   474.671819     0.000000 
  29.955000   533.000000     0.001876   474.676263     0.000000 
  29.963000   520.000000     0.001923   474.680705     0.000000 
  29.971000   477.000000     0.002096   474.685143     0.000000 
  29.979000   499.000000     0.002004   474.689578     0.000000 
  29.987000   473.000000     0.002114   474.694010     0.000000 
  29.995000   443.000000     0.002257   474.698439     0.000000 
  30.003000   430.000000     0.002326   474.702865     0.000000 
  30.011000   437.000000     0.002288   474.707288     0.000000 
  30.019000   468.000000     0.002137   474.711708     0.000000 
  30.027000   481.000000     0.002079   474.716125     0.000000 
  30.035000   471.000000     0.002123   474.720539     0.000000 
  30.043000   470.000000     0.002128   474.724949     0.000000 
  30.051000   488.000000     0.002049   474.729357     0.000000 
  30.059000   482.000000     0.002075   474.733761     0.000000 
  30.067000   467.000000     0.002141   474.738163     0.000000 
  30.075000   527.000000     0.001898   474.742561     0.000000 
  30.083000   482.000000     0.002075   474.746957     0.000000 
  30.091000   451.000000     0.002217   474.751349     0.000000 
  30.099000   457.000000     0.002188   474.755738     0.000000 
  30.107000   489.000000     0.002045   474.760124     0.000000 
  30.115000   388.000000     0.002577   474.764507     0.000000 
  30.123000   450.000000     0.002222   474.768887     0.000000 
  30.131000   455.000000     0.002198   474.773264     0.000000 
  30.139000   478.000000     0.002092   474.777638     0.000000 
  30.147000   444.000000     0.002252   474.782008     0.000000 
  30.155000   467.000000     0.002141   474.786376     0.000000 
  30.163000   493.000000     0.002028   474.790741     0.000000 
  30.171000   501.000000     0.001996   474.795102     0.000000 
  30.179000   487.000000     0.002053   474.799460     0.000000 
  30.187000   511.000000     0.001957   474.803816     0.000000 
  30.195000   506.000000     0.001976   474.808168     0.000000 
  30.203000   470.000000     0.002128   474.812517     0.000000 
  30.211000   460.000000     0.002174   474.816863     0.000000 
  30.219000   447.000000     0.002237   474.821206     0.000000 
  30.227000   487.000000     0.002053   474.825546     0.000000 
  30.235000   482.000000     0.002075   474.829883     0.000000 
  30.243000   435.000000     0.002299   474.834216     0.000000 
  30.251000   495.000000     0.002020   474.838547     0.000000 
  30.259000   461.000000     0.002169   474.842874     0.000000 
  30.267000   485.000000     0.002062   474.847199     0.000000 
  30.275000   472.000000     0.002119   474.851520     0.000000 
  30.283000   492.000000     0.002033   474.855838     0.000000 
  30.291000   500.000000     0.002000   474.860153     0.000000 
  30.299000   471.000000     0.002123   474.864465     0.000000 
  30.307000   537.000000     0.001862   474.868774     0.000000 
  30.315000   472.000000     0.002119   474.873080     0.000000 
  30.323000   493.000000     0.002028   474.877383     0.000000 
  30.331000   496.000000     0.002016   474.881683     0.000000 
  30.339000   473.000000     0.002114   474.885979     0.000000 
  30.347000   482.000000     0.002075   474.890273     0.000000 
  30.355000   496.000000     0.002016   477.779475     0.000000 
  30.363000   490.000000     0.002041   477.854165     0.000000 
  30.371000   473.000000     0.002114   477.931459     0.000000 
  30.379000   463.000000     0.002160   478.011489     0.000000 
  30.387000   441.000000     0.002268   478.094393     0.000000 
  30.395000   447.000000     0.002237   478.180318     0.000000 
  30.403000   447.000000     0.002237   478.269422     0.000000 
  30.411000   455.000000     0.002198   478.361871     0.000000 
  30.419000   446.000000     0.002242   478.457845     0.000000 
  30.427000   436.000000     0.002294   478.557533     0.000000 
  30.435000   522.000000     0.001916   478.661140     0.000000 
  30.443000   507.000000     0.001972   478.768884     0.000000 
  30.451000   468.000000     0.002137   478.880997     0.000000 
  30.459000   518.000000     0.001931   478.997729     0.000000 
  30.467000   471.000000     0.002123   479.119348     0.000000 
  30.475000   495.000000     0.002020   479.246141     0.000000 
  30.483000   503.000000     0.001988   479.378418     0.000000 
  30.491000   500.000000     0.002000   479.516510     0.000000 
  30.499000   527.000000     0.001898   479.660776     0.000000 
  30.507000   431.000000     0.002320   479.811600     0.000000 
  30.515000   433.000000     0.002309   479.969400     0.000000 
  30.523000   427.000000     0.002342   480.134625     0.000000 
  30.531000   416.000000     0.002404   480.307761     0.000000 
  30.539000   452.000000     0.002212   480.489336     0.000000 
  30.547000   471.000000     0.002123   480.679922     0.000000 
  30.555000   474.000000     0.002110   480.880138     0.000000 
  30.563000   490.000000     0.002041   481.090661     0.000000 
  30.571000   466.000000     0.002146   481.312226     0.000000 
  30.579000   434.000000     0.002304   481.545634     0.000000 
  30.587000   476.000000     0.002101   481.791762     0.000000 
  30.595000   505.000000     0.001980   482.051568     0.000000 
  30.603000   502.000000     0.001992   482.326103     0.000000 
  30.611000   473.000000     0.002114   482.616519     0.000000 
  30.619000   453.000000     0.002208   482.924086     0.000000 
  30.627000   508.000000     0.001969   483.250199     0.000000 
  30.635000   481.000000     0.002079   483.596401     0.000000 
  30.643000   461.000000     0.002169   483.964398     0.000000 
  30.651000   529.000000     0.001890   484.356079     0.000000 
  30.659000   483.000000     0.002070   484.773545     0.000000 
  30.667000   494.000000     0.002024   485.219131     0.000000 
  30.675000   426.000000     0.002347   485.695446     0.000000 
  30.683000   464.000000     0.002155   486.205405     0.000000 
  30.691000   511.000000     0.001957   486.752279     0.000000 
  30.699000   505.000000     0.001980   487.339744     0.000000 
  30.707000   454.000000     0.002203   487.971946     0.000000 
  30.715000   467.000000     0.002141   488.653570     0.000000 
  30.723000   511.000000     0.001957   489.389935     0.000000 
  30.731000   472.000000     0.002119   490.187088     0.000000 
  30.739000   507.000000     0.001972   491.051936     0.000000 
  30.747000   477.000000     0.002096   491.992394     0.000000 
  30.755000   493.000000     0.002028   493.017564     0.000000 
  30.763000   526.000000     0.001901   494.137958     0.000000 
  30.771000   501.000000     0.001996   495.365764     0.000000 
  30.779000   477.000000     0.002096   496.715180     0.000000 
  30.787000   519.000000     0.001927   498.202823     0.000000 
  30.795000   528.000000     0.001894   499.848239     0.000000 
  30.803000   500.000000     0.002000   501.674542     0.000000 
  30.811000   519.000000     0.001927   503.709223     0.000000 
  30.819000   531.000000     0.001883   505.985177     0.000000 
  30.827000   558.000000     0.001792   508.542031     0.000000 
  30.835000   604.000000     0.001656   511.427850     0.000000 
  30.843000   553.000000     0.001808   514.701382     0.000000 
  30.851000   607.000000     0.001647   518.435023     0.000000 
  30.859000   616.000000     0.001623   522.718775     0.000000 
  30.867000   565.000000     0.001770   527.665610     0.000000 
  30.875000   611.000000     0.001637   533.418826     0.000000 
  30.883000   645.000000     0.001550   540.162260     0.000000 
  30.891000   658.000000     0.001520   548.134734     0.000000 
  30.899000   743.000000     0.001346   557.650781     0.000000 
  30.907000   761.000000     0.001314   569.130965     0.000000 
  30.915000   810.000000     0.001235   583.147122     0.000000 
  30.923000   882.000000     0.001134   600.491462     0.000000 
  30.931000   896.000000     0.001116   622.285440     0.000000 
  30.939000   938.000000     0.001066   650.160387     0.000000 
  30.947000   981.000000     0.001019   686.585049     0.000000 
  30.955000  1041.000000     0.000961   735.528188     0.000000 
  30.963000  1179.000000     0.000848   803.869736     0.000000 
  30.971000  1299.000000     0.000770   904.181726     0.000000 
  30.979000  1369.000000     0.000730  1059.093630     0.000000 
  30.987000  1491.000000     0.000671  1305.612307     0.000000 
  30.995000  1659.000000     0.000603  1694.449932     0.000000 
  31.003000  1870.000000     0.000535  2271.747443     0.000000 
  31.011000  2144.000000     0.000466  2998.634266     0.000000 
  31.019000  2401.000000     0.000416  3556.602980     0.000000 
  31.027000  2418.000000     0.000414  3453.047312     0.000000 
  31.035000  2359.000000     0.000424  2796.026874     0.000000 
  31.043000  2060.000000     0.000485  2094.336250     0.000000 
  31.051000  1667.000000     0.000600  1570.926423     0.000000 
  31.059000  1419.000000     0.000705  1226.443798     0.000000 
  31.067000  1165.000000     0.000858  1009.544377     0.000000 
  31.075000   951.000000     0.001052   872.578890     0.000000 
  31.083000   790.000000     0.001266   782.746414     0.000000 
  31.091000   761.000000     0.001314   720.656179     0.000000 
  31.099000   712.000000     0.001404   675.666741     0.000000 
  31.107000   690.000000     0.001449   641.900839     0.000000 
  31.115000   626.000000     0.001597   615.897918     0.000000 
  31.123000   650.000000     0.001538   595.464577     0.000000 
  31.131000   634.000000     0.001577   579.133087     0.000000 
  31.139000   547.000000     0.001828   565.886058     0.000000 
  31.147000   511.000000     0.001957   555.000264     0.000000 
  31.155000   519.000000     0.001927   545.950864     0.000000 
  31.163000   562.000000     0.001779   538.350020     0.000000 
  31.171000   529.000000     0.001890   531.906425     0.000000 
  31.179000   528.000000     0.001894   526.398034     0.000000 
  31.187000   538.000000     0.001859   521.653318     0.000000 
  31.195000   568.000000     0.001761   517.538144     0.000000 
  31.203000   465.000000     0.002151   513.946452     0.000000 
  31.211000   458.000000     0.002183   510.793518     0.000000 
  31.219000   509.000000     0.001965   508.011022     0.000000 
  31.227000   568.000000     0.001761   505.543395     0.000000 
  31.235000   509.000000     0.001965   503.345078     0.000000 
  31.243000   488.000000     0.002049   501.378436     0.000000 
  31.251000   488.000000     0.002049   499.612167     0.000000 
  31.259000   524.000000     0.001908   498.020068     0.000000 
  31.267000   440.000000     0.002273   496.580075     0.000000 
  31.275000   449.000000     0.002227   495.273498     0.000000 
  31.283000   507.000000     0.001972   494.084429     0.000000 
  31.291000   516.000000     0.001938   492.999256     0.000000 
  31.299000   428.000000     0.002336   492.006279     0.000000 
  31.307000   392.000000     0.002551   491.095395     0.000000 
  31.315000   432.000000     0.002315   490.257848     0.000000 
  31.323000   470.000000     0.002128   489.486014     0.000000 
  31.331000   479.000000     0.002088   488.773237     0.000000 
  31.339000   470.000000     0.002128   488.113677     0.000000 
  31.347000   539.000000     0.001855   487.502200     0.000000 
  31.355000   522.000000     0.001916   486.934276     0.000000 
  31.363000   469.000000     0.002132   486.405895     0.000000 
  31.371000   443.000000     0.002257   485.913496     0.000000 
  31.379000   492.000000     0.002033   485.453911     0.000000 
  31.387000   483.000000     0.002070   485.024313     0.000000 
  31.395000   476.000000     0.002101   484.622171     0.000000 
  31.403000   449.000000     0.002227   484.245217     0.000000 
  31.411000   510.000000     0.001961   483.891412     0.000000 
  31.419000   524.000000     0.001908   483.558917     0.000000 
  31.427000   414.000000     0.002415   483.246074     0.000000 
  31.435000   451.000000     0.002217   482.951382     0.000000 
  31.443000   426.000000     0.002347   482.673481     0.000000 
  31.451000   510.000000     0.001961   482.411136     0.000000 
  31.459000   506.000000     0.001976   482.163222     0.000000 
  31.467000   502.000000     0.001992   481.928716     0.000000 
  31.475000   496.000000     0.002016   481.706682     0.000000 
  31.483000   495.000000     0.002020   481.496266     0.000000 
  31.491000   440.000000     0.002273   481.296683     0.000000 
  31.499000   457.000000     0.002188   481.107217     0.000000 
  31.507000   514.000000     0.001946   480.927206     0.000000 
  31.515000   481.000000     0.002079   480.756045     0.000000 
  31.523000   506.000000     0.001976   480.593175     0.000000 
  31.531000   486.000000     0.002058   480.438079     0.000000 
  31.539000   477.000000     0.002096   480.290281     0.000000 
  31.547000   435.000000     0.002299   480.149341     0.000000 
  31.555000   425.000000     0.002353   480.014853     0.000000 
  31.563000   448.000000     0.002232   479.886436     0.000000 
  31.571000   471.000000     0.002123   479.763743     0.000000 
  31.579000   551.000000     0.001815   479.646445     0.000000 
  31.587000   491.000000     0.002037   479.534241     0.000000 
  31.595000   418.000000     0.002392   479.426849     0.000000 
  31.603000   464.000000     0.002155   479.324006     0.000000 
  31.611000   458.000000     0.002183   479.225467     0.000000 
  31.619000   451.000000     0.002217   479.131003     0.000000 
  31.627000   481.000000     0.002079   479.040401     0.000000 
  31.635000   464.000000     0.002155   478.953460     0.000000 
  31.643000   437.000000     0.002288   478.869993     0.000000 
  31.651000   472.000000     0.002119   478.789826     0.000000 
  31.659000   465.000000     0.002151   478.712792     0.000000 
  31.667000   487.000000     0.002053   478.638739     0.000000 
  31.675000   490.000000     0.002041   478.567520     0.000000 
  31.683000   479.000000     0.002088   478.499000     0.000000 
  31.691000   496.000000     0.002016   478.433051     0.000000 
  31.699000   473.000000     0.002114   475.570707     0.000000 
  31.707000   433.000000     0.002309   475.574463     0.000000 
  31.715000   431.000000     0.002320   475.578215     0.000000 
  31.723000   439.000000     0.002278   475.581964     0.000000 
  31.731000   454.000000     0.002203   475.585710     0.000000 
  31.739000   490.000000     0.002041   475.589452     0.000000 
  31.747000   457.000000     0.002188   475.593192     0.000000 
  31.755000   442.000000     0.002262   475.596928     0.000000 
  31.763000   515.000000     0.001942   475.600661     0.000000 
  31.771000   443.000000     0.002257   475.604391     0.000000 
  31.779000   477.000000     0.002096   475.608117     0.000000 
  31.787000   460.000000     0.002174   475.611841     0.000000 
  31.795000   514.000000     0.001946   475.615561     0.000000 
  31.803000   482.000000     0.002075   475.619277     0.000000 
  31.811000   454.000000     0.002203   475.622991     0.000000 
  31.819000   477.000000     0.002096   475.626701     0.000000 
  31.827000   414.000000     0.002415   475.630408     0.000000 
  31.835000   486.000000     0.002058   475.634112     0.000000 
  31.843000   445.000000     0.002247   475.637813     0.000000 
  31.851000   467.000000     0.002141   475.641510     0.000000 
  31.859000   441.000000     0.002268   475.645205     0.000000 
  31.867000   482.000000     0.002075   475.648896     0.000000 
  31.875000   446.000000     0.002242   475.652583     0.000000 
  31.883000   444.000000     0.002252   475.656268     0.000000 
  31.891000   442.000000     0.002262   475.659949     0.000000 
  31.899000   411.000000     0.002433   475.663627     0.000000 
  31.907000   474.000000     0.002110   475.667302     0.000000 
  31.915000   478.000000     0.002092   475.670973     0.000000 
  31.923000   464.000000     0.002155   475.674642     0.000000 
  31.931000   447.000000     0.002237   475.678307     0.000000 
  31.939000   439.000000     0.002278   475.681968     0.000000 
  31.947000   475.000000     0.002105   475.685627     0.000000 
  31.955000   509.000000     0.001965   475.689282     0.000000 
  31.963000   466.000000     0.002146   475.692934     0.000000 
  31.971000   494.000000     0.002024   475.696583     0.000000 
  31.979000   524.000000     0.001908   475.700229     0.000000 
  31.987000   454.000000     0.002203   475.703871     0.000000 
  31.995000   481.000000     0.002079   475.707510     0.000000 
  32.003000   465.000000     0.002151   475.711146     0.000000 
  32.011000   474.000000     0.002110   475.714779     0.000000 
  32.019000   546.000000     0.001832   475.718408     0.000000 
  32.027000   509.000000     0.001965   475.722034     0.000000 
  32.035000   454.000000     0.002203   475.725657     0.000000 
  32.043000   472.000000     0.002119   475.729277     0.000000 
  32.051000   460.000000     0.002174   475.732893     0.000000 
  32.059000   467.000000     0.002141   475.736506     0.000000 
  32.067000   487.000000     0.002053   475.740116     0.000000 
  32.075000   453.000000     0.002208   475.743723     0.000000 
  32.083000   477.000000     0.002096   475.747326     0.000000 
  32.091000   509.000000     0.001965   475.750926     0.000000 
  32.099000   461.000000     0.002169   475.754523     0.000000 
  32.107000   461.000000     0.002169   475.758117     0.000000 
  32.115000   513.000000     0.001949   475.761707     0.000000 
  32.123000   486.000000     0.002058   475.765294     0.000000 
  32.131000   490.000000     0.002041   475.768878     0.000000 
  32.139000   499.000000     0.002004   475.772458     0.000000 
  32.147000   454.000000     0.002203   475.776036     0.000000 
  32.155000   490.000000     0.002041   475.779610     0.000000 
  32.163000   510.000000     0.001961   475.783181     0.000000 
  32.171000   435.000000     0.002299   475.786748     0.000000 
  32.179000   437.000000     0.002288   475.790312     0.000000 
  32.187000   513.000000     0.001949   475.793874     0.000000 
  32.195000   492.000000     0.002033   475.797431     0.000000 
  32.203000   482.000000     0.002075   475.800986     0.000000 
  32.211000   471.000000     0.002123   475.804537     0.000000 
  32.219000   509.000000     0.001965   475.808085     0.000000 
  32.227000   534.000000     0.001873   475.811630     0.000000 
  32.235000   508.000000     0.001969   475.815171     0.000000 
  32.243000   436.000000     0.002294   475.818709     0.000000 
  32.251000   474.000000     0.002110   475.822244     0.000000 
  32.259000   514.000000     0.001946   475.825776     0.000000 
  32.267000   460.000000     0.002174   475.829305     0.000000 
  32.275000   454.000000     0.002203   475.832830     0.000000 
  32.283000   478.000000     0.002092   475.836352     0.000000 
  32.291000   467.000000     0.002141   475.839870     0.000000 
  32.299000   443.000000     0.002257   475.843386     0.000000 
  32.307000   437.000000     0.002288   475.846898     0.000000 
  32.315000   469.000000     0.002132   475.850406     0.000000 
  32.323000   520.000000     0.001923   494.832013     0.000000 
  32.331000   492.000000     0.002033   495.205352     0.000000 
  32.339000   447.000000     0.002237   495.589600     0.000000 
  32.347000   452.000000     0.002212   495.985192     0.000000 
  32.355000   524.000000     0.001908   496.392581     0.000000 
  32.363000   496.000000     0.002016   496.812248     0.000000 
  32.371000   473.000000     0.002114   497.244693     0.000000 
  32.379000   523.000000     0.001912   497.690446     0.000000 
  32.387000   560.000000     0.001786   498.150063     0.000000 
  32.395000   492.000000     0.002033   498.624130     0.000000 
  32.403000   437.000000     0.002288   499.113263     0.000000 
  32.411000   442.000000     0.002262   499.618112     0.000000 
  32.419000   488.000000     0.002049   500.139363     0.000000 
  32.427000   522.000000     0.001916   500.677740     0.000000 
  32.435000   490.000000     0.002041   501.234006     0.000000 
  32.443000   485.000000     0.002062   501.808966     0.000000 
  32.451000   477.000000     0.002096   502.403474     0.000000 
  32.459000   460.000000     0.002174   503.018432     0.000000 
  32.467000   433.000000     0.002309   503.654793     0.000000 
  32.475000   439.000000     0.002278   504.313568     0.000000 
  32.483000   506.000000     0.001976   504.995827     0.000000 
  32.491000   501.000000     0.001996   505.702706     0.000000 
  32.499000   464.000000     0.002155   506.435410     0.000000 
  32.507000   460.000000     0.002174   507.195217     0.000000 
  32.515000   459.000000     0.002179   507.983487     0.000000 
  32.523000   497.000000     0.002012   508.801667     0.000000 
  32.531000   487.000000     0.002053   509.651294     0.000000 
  32.539000   525.000000     0.001905   510.534006     0.000000 
  32.547000   516.000000     0.001938   511.451552     0.000000 
  32.555000   470.000000     0.002128   512.405794     0.000000 
  32.563000   463.000000     0.002160   513.398721     0.000000 
  32.571000   433.000000     0.002309   514.432461     0.000000 
  32.579000   482.000000     0.002075   515.509287     0.000000 
  32.587000   496.000000     0.002016   516.631634     0.000000 
  32.595000   447.000000     0.002237   517.802111     0.000000 
  32.603000   468.000000     0.002137   519.023517     0.000000 
  32.611000   484.000000     0.002066   520.298855     0.000000 
  32.619000   458.000000     0.002183   521.631356     0.000000 
  32.627000   466.000000     0.002146   523.024494     0.000000 
  32.635000   500.000000     0.002000   524.482011     0.000000 
  32.643000   480.000000     0.002083   526.007942     0.000000 
  32.651000   492.000000     0.002033   527.606643     0.000000 
  32.659000   504.000000     0.001984   529.282821     0.000000 
  32.667000   490.000000     0.002041   531.041572     0.000000 
  32.675000   509.000000     0.001965   532.888415     0.000000 
  32.683000   465.000000     0.002151   534.829337     0.000000 
  32.691000   494.000000     0.002024   536.870843     0.000000 
  32.699000   454.000000     0.002203   539.020010     0.000000 
  32.707000   466.000000     0.002146   541.284547     0.000000 
  32.715000   536.000000     0.001866   543.672864     0.000000 
  32.723000   481.000000     0.002079   546.194150     0.000000 
  32.731000   509.000000     0.001965   548.858463     0.000000 
  32.739000   550.000000     0.001818   551.676828     0.000000 
  32.747000   480.000000     0.002083   554.661353     0.000000 
  32.755000   476.000000     0.002101   557.825353     0.000000 
  32.763000   501.000000     0.001996   561.183508     0.000000 
  32.771000   475.000000     0.002105   564.752021     0.000000 
  32.779000   553.000000     0.001808   568.548822     0.000000 
  32.787000   550.000000     0.001818   572.593789     0.000000 
  32.795000   478.000000     0.002092   576.909005     0.000000 
  32.803000   508.000000     0.001969   581.519062     0.000000 
  32.811000   553.000000     0.001808   586.451405     0.000000 
  32.819000   531.000000     0.001883   591.736743     0.000000 
  32.827000   523.000000     0.001912   597.409522     0.000000 
  32.835000   583.000000     0.001715   603.508484     0.000000 
  32.843000   615.000000     0.001626   610.077322     0.000000 
  32.851000   600.000000     0.001667   617.165460     0.000000 
  32.859000   578.000000     0.001730   624.828976     0.000000 
  32.867000   555.000000     0.001802   633.131699     0.000000 
  32.875000   610.000000     0.001639   642.146534     0.000000 
  32.883000   654.000000     0.001529   651.957044     0.000000 
  32.891000   638.000000     0.001567   662.659370     0.000000 
  32.899000   665.000000     0.001504   674.364563     0.000000 
  32.907000   600.000000     0.001667   687.201439     0.000000 
  32.915000   724.000000     0.001381   701.320076     0.000000 
  32.923000   749.000000     0.001335   716.896156     0.000000 
  32.931000   813.000000     0.001230   734.136356     0.000000 
  32.939000   860.000000     0.001163   753.285111     0.000000 
  32.947000   968.000000     0.001033   774.633148     0.000000 
  32.955000   999.000000     0.001001   798.528344     0.000000 
  32.963000  1104.000000     0.000906   825.389648     0.000000 
  32.971000  1195.000000     0.000837   855.725097     0.000000 
  32.979000  1274.000000     0.000785   890.155331     0.000000 
  32.987000  1408.000000     0.000710   929.444612     0.000000 
  32.995000  1556.000000     0.000643   974.542158     0.000000 
  33.003000  1672.000000     0.000598  1026.637861     0.000000 
  33.011000  1820.000000     0.000549  1087.238351     0.000000 
  33.019000  2066.000000     0.000484  1158.272185     0.000000 
  33.027000  2360.000000     0.000424  1242.238126     0.000000 
  33.035000  2634.000000     0.000380  1342.419800     0.000000 
  33.043000  2929.000000     0.000341  1463.212883     0.000000 
  33.051000  3174.000000     0.000315  1610.669784     0.000000 
  33.059000  3331.000000     0.000300  1793.516115     0.000000 
  33.067000  3634.000000     0.000275  2025.217302     0.000000 
  33.075000  4111.000000     0.000243  2328.199692     0.000000 
  33.083000  4603.000000     0.000217  2741.753153     0.000000 
  33.091000  5413.000000     0.000185  3334.451010     0.000000 
  33.099000  6428.000000     0.000156  4218.593164     0.000000 
  33.107000  7422.000000     0.000135  5557.906924     0.000000 
  33.115000  8792.000000     0.000114  7553.922723     0.000000 
  33.123000  10107.000000     0.000099  10395.730737     0.000000 
  33.131000  11613.000000     0.000086  14153.143527     0.000000 
  33.139000  13249.000000     0.000075  18551.180045     0.000000 
  33.147000  16041.000000     0.000062  22556.845689     0.000000 
  33.155000  17870.000000     0.000056  24300.388984     0.000000 
  33.163000  18547.000000     0.000054  22633.934510     0.000000 
  33.171000  16916.000000     0.000059  18659.434800     0.000000 
  33.179000  13518.000000     0.000074  14254.876155     0.000000 
  33.187000  9657.000000     0.000104  10476.596291     0.000000 
  33.195000  6689.000000     0.000149  7612.548693     0.000000 
  33.203000  4728.000000     0.000212  5597.976357     0.000000 
  33.211000  3506.000000     0.000285  4245.142074     0.000000 
  33.219000  2863.000000     0.000349  3352.053459     0.000000 
  33.227000  2324.000000     0.000430  2753.787130     0.000000 
  33.235000  1877.000000     0.000533  2336.830354     0.000000 
  33.243000  1899.000000     0.000527  2031.712191     0.000000 
  33.251000  1718.000000     0.000582  1798.593103     0.000000 
  33.259000  1689.000000     0.000592  1614.746745     0.000000 
  33.267000  1502.000000     0.000666  1466.550588     0.000000 
  33.275000  1297.000000     0.000771  1345.193790     0.000000 
  33.283000  1151.000000     0.000869  1244.573480     0.000000 
  33.291000   983.000000     0.001017  1160.261246     0.000000 
  33.299000   857.000000     0.001167  1088.950817     0.000000 
  33.307000   865.000000     0.001156  1028.127176     0.000000 
  33.315000   839.000000     0.001192   975.849831     0.000000 
  33.323000   831.000000     0.001203   930.603255     0.000000 
  33.331000   651.000000     0.001536   891.190834     0.000000 
  33.339000   602.000000     0.001661   856.658210     0.000000 
  33.347000   620.000000     0.001613   826.237153     0.000000 
  33.355000   504.000000     0.001984   799.303925     0.000000 
  33.363000   471.000000     0.002123   775.348048     0.000000 
  33.371000   478.000000     0.002092   753.948636     0.000000 
  33.379000   500.000000     0.002000   734.756257     0.000000 
  33.387000   479.000000     0.002088   717.478930     0.000000 
  33.395000   457.000000     0.002188   701.871204     0.000000 
  33.403000   456.000000     0.002193   687.725565     0.000000 
  33.411000   460.000000     0.002174   674.865647     0.000000 
  33.419000   525.000000     0.001905   663.140801     0.000000 
  33.427000   505.000000     0.001980   652.421738     0.000000 
  33.435000   452.000000     0.002212   642.597011     0.000000 
  33.443000   456.000000     0.002193   633.570143     0.000000 
  33.451000   466.000000     0.002146   625.257291     0.000000 
  33.459000   479.000000     0.002088   617.585309     0.000000 
  33.467000   488.000000     0.002049   610.490164     0.000000 
  33.475000   469.000000     0.002132   603.915603     0.000000 
  33.483000   521.000000     0.001919   597.812051     0.000000 
  33.491000   532.000000     0.001880   592.135684     0.000000 
  33.499000   451.000000     0.002217   586.847649     0.000000 
  33.507000   476.000000     0.002101   581.913403     0.000000 
  33.515000   501.000000     0.001996   577.302151     0.000000 
  33.523000   477.000000     0.002096   572.986373     0.000000 
  33.531000   455.000000     0.002198   568.941413     0.000000 
  33.539000   483.000000     0.002070   565.145128     0.000000 
  33.547000   468.000000     0.002137   561.577592     0.000000 
  33.555000   452.000000     0.002212   558.220831     0.000000 
  33.563000   491.000000     0.002037   555.058600     0.000000 
  33.571000   473.000000     0.002114   552.076185     0.000000 
  33.579000   447.000000     0.002237   549.260239     0.000000 
  33.587000   446.000000     0.002242   546.598627     0.000000 
  33.595000   460.000000     0.002174   544.080299     0.000000 
  33.603000   466.000000     0.002146   541.695175     0.000000 
  33.611000   468.000000     0.002137   539.434045     0.000000 
  33.619000   510.000000     0.001961   537.288481     0.000000 
  33.627000   475.000000     0.002105   535.250757     0.000000 
  33.635000   474.000000     0.002110   533.313784     0.000000 
  33.643000   488.000000     0.002049   531.471042     0.000000 
  33.651000   487.000000     0.002053   529.716532     0.000000 
  33.659000   489.000000     0.002045   528.044723     0.000000 
  33.667000   503.000000     0.001988   526.450511     0.000000 
  33.675000   517.000000     0.001934   524.929180     0.000000 
  33.683000   475.000000     0.002105   523.476365     0.000000 
  33.691000   478.000000     0.002092   522.088024     0.000000 
  33.699000   480.000000     0.002083   520.760407     0.000000 
  33.707000   424.000000     0.002358   519.490035     0.000000 
  33.715000   446.000000     0.002242   518.273671     0.000000 
  33.723000   455.000000     0.002198   517.108307     0.000000 
  33.731000   448.000000     0.002232   515.991138     0.000000 
  33.739000   402.000000     0.002488   514.919551     0.000000 
  33.747000   416.000000     0.002404   513.891109     0.000000 
  33.755000   445.000000     0.002247   512.903532     0.000000 
  33.763000   452.000000     0.002212   511.954691     0.000000 
  33.771000   487.000000     0.002053   511.042593     0.000000 
  33.779000   503.000000     0.001988   510.165371     0.000000 
  33.787000   513.000000     0.001949   509.321277     0.000000 
  33.795000   519.000000     0.001927   508.508669     0.000000 
  33.803000   523.000000     0.001912   507.726007     0.000000 
  33.811000   523.000000     0.001912   506.971841     0.000000 
  33.819000   502.000000     0.001992   506.244811     0.000000 
  33.827000   540.000000     0.001852   505.543636     0.000000 
  33.835000   551.000000     0.001815   504.867109     0.000000 
  33.843000   474.000000     0.002110   504.214094     0.000000 
  33.851000   501.000000     0.001996   503.583517     0.000000 
  33.859000   502.000000     0.001992   502.974368     0.000000 
  33.867000   531.000000     0.001883   502.385691     0.000000 
  33.875000   485.000000     0.002062   501.816582     0.000000 
  33.883000   471.000000     0.002123   501.266189     0.000000 
  33.891000   479.000000     0.002088   500.733704     0.000000 
  33.899000   469.000000     0.002132   500.218362     0.000000 
  33.907000   462.000000     0.002165   499.719439     0.000000 
  33.915000   491.000000     0.002037   499.236249     0.000000 
  33.923000   466.000000     0.002146   498.768140     0.000000 
  33.931000   499.000000     0.002004   498.314496     0.000000 
  33.939000   469.000000     0.002132   497.874729     0.000000 
  33.947000   483.000000     0.002070   497.448284     0.000000 
  33.955000   479.000000     0.002088   497.034629     0.000000 
  33.963000   474.000000     0.002110   496.633264     0.000000 
  33.971000   462.000000     0.002165   496.243707     0.000000 
  33.979000   427.000000     0.002342   495.865505     0.000000 
  33.987000   443.000000     0.002257   495.498222     0.000000 
  33.995000   503.000000     0.001988   476.514046     0.000000 
  34.003000   471.000000     0.002123   476.516854     0.000000 
  34.011000   459.000000     0.002179   476.519659     0.000000 
  34.019000   457.000000     0.002188   476.522460     0.000000 
  34.027000   482.000000     0.002075   476.525258     0.000000 
  34.035000   515.000000     0.001942   476.528053     0.000000 
  34.043000   470.000000     0.002128   476.530844     0.000000 
  34.051000   492.000000     0.002033   476.533632     0.000000 
  34.059000   472.000000     0.002119   476.536416     0.000000 
  34.067000   506.000000     0.001976   476.539198     0.000000 
  34.075000   513.000000     0.001949   476.541975     0.000000 
  34.083000   429.000000     0.002331   476.544750     0.000000 
  34.091000   448.000000     0.002232   476.547521     0.000000 
  34.099000   453.000000     0.002208   476.550289     0.000000 
  34.107000   464.000000     0.002155   476.553053     0.000000 
  34.115000   473.000000     0.002114   476.555814     0.000000 
  34.123000   494.000000     0.002024   476.558572     0.000000 
  34.131000   508.000000     0.001969   476.561326     0.000000 
  34.139000   477.000000     0.002096   476.564077     0.000000 
  34.147000   514.000000     0.001946   476.566824     0.000000 
  34.155000   495.000000     0.002020   476.569568     0.000000 
  34.163000   462.000000     0.002165   481.199421     0.000000 
  34.171000   513.000000     0.001949   481.281537     0.000000 
  34.179000   490.000000     0.002041   481.365708     0.000000 
  34.187000   460.000000     0.002174   481.452007     0.000000 
  34.195000   449.000000     0.002227   481.540509     0.000000 
  34.203000   441.000000     0.002268   481.631292     0.000000 
  34.211000   430.000000     0.002326   481.724438     0.000000 
  34.219000   472.000000     0.002119   481.820033     0.000000 
  34.227000   506.000000     0.001976   481.918166     0.000000 
  34.235000   470.000000     0.002128   482.018930     0.000000 
  34.243000   397.000000     0.002519   482.122424     0.000000 
  34.251000   457.000000     0.002188   482.228749     0.000000 
  34.259000   451.000000     0.002217   482.338013     0.000000 
  34.267000   443.000000     0.002257   482.450329     0.000000 
  34.275000   464.000000     0.002155   482.565815     0.000000 
  34.283000   464.000000     0.002155   482.684593     0.000000 
  34.291000   451.000000     0.002217   482.806794     0.000000 
  34.299000   477.000000     0.002096   482.932553     0.000000 
  34.307000   491.000000     0.002037   483.062014     0.000000 
  34.315000   458.000000     0.002183   483.195327     0.000000 
  34.323000   456.000000     0.002193   483.332649     0.000000 
  34.331000   497.000000     0.002012   483.474146     0.000000 
  34.339000   463.000000     0.002160   483.619993     0.000000 
  34.347000   465.000000     0.002151   483.770375     0.000000 
  34.355000   496.000000     0.002016   483.925483     0.000000 
  34.363000   502.000000     0.001992   484.085524     0.000000 
  34.371000   510.000000     0.001961   484.250711     0.000000 
  34.379000   520.000000     0.001923   484.421272     0.000000 
  34.387000   499.000000     0.002004   484.597446     0.000000 
  34.395000   472.000000     0.002119   484.779487     0.000000 
  34.403000   499.000000     0.002004   484.967662     0.000000 
  34.411000   491.000000     0.002037   485.162255     0.000000 
  34.419000   452.000000     0.002212   485.363564     0.000000 
  34.427000   479.000000     0.002088   485.571907     0.000000 
  34.435000   482.000000     0.002075   485.787620     0.000000 
  34.443000   506.000000     0.001976   486.011059     0.000000 
  34.451000   443.000000     0.002257   486.242603     0.000000 
  34.459000   446.000000     0.002242   486.482652     0.000000 
  34.467000   477.000000     0.002096   486.731634     0.000000 
  34.475000   459.000000     0.002179   486.990003     0.000000 
  34.483000   451.000000     0.002217   487.258240     0.000000 
  34.491000   449.000000     0.002227   487.536862     0.000000 
  34.499000   471.000000     0.002123   487.826414     0.000000 
  34.507000   494.000000     0.002024   488.127483     0.000000 
  34.515000   452.000000     0.002212   488.440693     0.000000 
  34.523000   438.000000     0.002283   488.766711     0.000000 
  34.531000   441.000000     0.002268   489.106250     0.000000 
  34.539000   489.000000     0.002045   489.460075     0.000000 
  34.547000   505.000000     0.001980   489.829004     0.000000 
  34.555000   500.000000     0.002000   490.213915     0.000000 
  34.563000   523.000000     0.001912   490.615750     0.000000 
  34.571000   494.000000     0.002024   491.035524     0.000000 
  34.579000   476.000000     0.002101   491.474325     0.000000 
  34.587000   431.000000     0.002320   491.933328     0.000000 
  34.595000   467.000000     0.002141   492.413798     0.000000 
  34.603000   507.000000     0.001972   492.917101     0.000000 
  34.611000   446.000000     0.002242   493.444714     0.000000 
  34.619000   469.000000     0.002132   493.998235     0.000000 
  34.627000   456.000000     0.002193   494.579394     0.000000 
  34.635000   399.000000     0.002506   495.190068     0.000000 
  34.643000   426.000000     0.002347   495.832298     0.000000 
  34.651000   435.000000     0.002299   496.508301     0.000000 
  34.659000   453.000000     0.002208   497.220494     0.000000 
  34.667000   486.000000     0.002058   497.971512     0.000000 
  34.675000   516.000000     0.001938   498.764236     0.000000 
  34.683000   464.000000     0.002155   499.601818     0.000000 
  34.691000   440.000000     0.002273   500.487711     0.000000 
  34.699000   504.000000     0.001984   501.425707     0.000000 
  34.707000   506.000000     0.001976   502.419979     0.000000 
  34.715000   495.000000     0.002020   503.475122     0.000000 
  34.723000   528.000000     0.001894   504.596210     0.000000 
  34.731000   518.000000     0.001931   505.788857     0.000000 
  34.739000   512.000000     0.001953   507.059282     0.000000 
  34.747000   550.000000     0.001818   508.414396     0.000000 
  34.755000   508.000000     0.001969   509.861892     0.000000 
  34.763000   424.000000     0.002358   511.410353     0.000000 
  34.771000   467.000000     0.002141   513.069382     0.000000 
  34.779000   533.000000     0.001876   514.849744     0.000000 
  34.787000   508.000000     0.001969   516.763543     0.000000 
  34.795000   520.000000     0.001923   518.824428     0.000000 
  34.803000   491.000000     0.002037   521.047829     0.000000 
  34.811000   513.000000     0.001949   523.451246     0.000000 
  34.819000   494.000000     0.002024   526.054591     0.000000 
  34.827000   522.000000     0.001916   528.880590     0.000000 
  34.835000   503.000000     0.001988   531.955282     0.000000 
  34.843000   562.000000     0.001779   535.308603     0.000000 
  34.851000   595.000000     0.001681   538.975108     0.000000 
  34.859000   605.000000     0.001653   542.994849     0.000000 
  34.867000   601.000000     0.001664   547.414448     0.000000 
  34.875000   627.000000     0.001595   552.288429     0.000000 
  34.883000   643.000000     0.001555   557.680867     0.000000 
  34.891000   635.000000     0.001575   563.667451     0.000000 
  34.899000   625.000000     0.001600   570.338084     0.000000 
  34.907000   678.000000     0.001475   577.800178     0.000000 
  34.915000   693.000000     0.001443   586.182869     0.000000 
  34.923000   717.000000     0.001395   595.642444     0.000000 
  34.931000   766.000000     0.001305   606.369406     0.000000 
  34.939000   807.000000     0.001239   618.597745     0.000000 
  34.947000   823.000000     0.001215   632.617257     0.000000 
  34.955000   851.000000     0.001175   648.790055     0.000000 
  34.963000   937.000000     0.001067   667.573351     0.000000 
  34.971000   996.000000     0.001004   689.551796     0.000000 
  34.979000  1033.000000     0.000968   715.486581     0.000000 
  34.987000  1077.000000     0.000929   746.397112     0.000000 
  34.995000  1181.000000     0.000847   783.710725     0.000000 
  35.003000  1235.000000     0.000810   829.553429     0.000000 
  35.011000  1312.000000     0.000762   887.310681     0.000000 
  35.019000  1507.000000     0.000664   962.635405     0.000000 
  35.027000  1616.000000     0.000619  1065.042180     0.000000 
  35.035000  1858.000000     0.000538  1209.973008     0.000000 
  35.043000  2052.000000     0.000487  1420.661644     0.000000 
  35.051000  2272.000000     0.000440  1728.395885     0.000000 
  35.059000  2592.000000     0.000386  2169.355202     0.000000 
  35.067000  2894.000000     0.000346  2776.541608     0.000000 
  35.075000  3337.000000     0.000300  3565.730007     0.000000 
  35.083000  3876.000000     0.000258  4512.028329     0.000000 
  35.091000  4555.000000     0.000220  5508.554247     0.000000 
  35.099000  5223.000000     0.000191  6317.431166     0.000000 
  35.107000  5447.000000     0.000184  6616.944475     0.000000 
  35.115000  5439.000000     0.000184  6252.838562     0.000000 
  35.123000  5222.000000     0.000191  5409.911935     0.000000 
  35.131000  4397.000000     0.000227  4409.972551     0.000000 
  35.139000  3548.000000     0.000282  3476.654635     0.000000 
  35.147000  2887.000000     0.000346  2705.919313     0.000000 
  35.155000  2253.000000     0.000444  2116.947144     0.000000 
  35.163000  1806.000000     0.000554  1691.323305     0.000000 
  35.171000  1597.000000     0.000626  1395.182684     0.000000 
  35.179000  1419.000000     0.000705  1192.565032     0.000000 
  35.187000  1133.000000     0.000883  1052.933762     0.000000 
  35.195000  1054.000000     0.000949   953.907044     0.000000 
  35.203000   872.000000     0.001147   880.748911     0.000000 
  35.211000   962.000000     0.001040   824.431365     0.000000 
  35.219000   939.000000     0.001065   779.597513     0.000000 
  35.227000   850.000000     0.001176   743.028730     0.000000 
  35.235000   716.000000     0.001397   712.690782     0.000000 
  35.243000   716.000000     0.001397   687.208449     0.000000 
  35.251000   698.000000     0.001433   665.594178     0.000000 
  35.259000   684.000000     0.001462   647.107928     0.000000 
  35.267000   681.000000     0.001468   631.180026     0.000000 
  35.275000   665.000000     0.001504   617.364307     0.000000 
  35.283000   610.000000     0.001639   605.307013     0.000000 
  35.291000   656.000000     0.001524   594.724745     0.000000 
  35.299000   636.000000     0.001572   585.388489     0.000000 
  35.307000   551.000000     0.001815   577.111637     0.000000 
  35.315000   524.000000     0.001908   569.740980     0.000000 
  35.323000   550.000000     0.001818   563.149841     0.000000 
  35.331000   496.000000     0.002016   557.232781     0.000000 
  35.339000   598.000000     0.001672   551.901494     0.000000 
  35.347000   544.000000     0.001838   547.081593     0.000000 
  35.355000   574.000000     0.001742   542.710069     0.000000 
  35.363000   521.000000     0.001919   538.733279     0.000000 
  35.371000   550.000000     0.001818   535.105333     0.000000 
  35.379000   493.000000     0.002028   531.786788     0.000000 
  35.387000   466.000000     0.002146   528.743601     0.000000 
  35.395000   518.000000     0.001931   525.946265     0.000000 
  35.403000   492.000000     0.002033   523.369109     0.000000 
  35.411000   508.000000     0.001969   520.989714     0.000000 
  35.419000   532.000000     0.001880   518.788436     0.000000 
  35.427000   522.000000     0.001916   516.747999     0.000000 
  35.435000   480.000000     0.002083   514.853170     0.000000 
  35.443000   458.000000     0.002183   513.090470     0.000000 
  35.451000   439.000000     0.002278   511.447939     0.000000 
  35.459000   456.000000     0.002193   509.914939     0.000000 
  35.467000   486.000000     0.002058   508.481980     0.000000 
  35.475000   507.000000     0.001972   507.140573     0.000000 
  35.483000   522.000000     0.001916   505.883113     0.000000 
  35.491000   495.000000     0.002020   504.702762     0.000000 
  35.499000   470.000000     0.002128   503.593367     0.000000 
  35.507000   463.000000     0.002160   502.549372     0.000000 
  35.515000   436.000000     0.002294   501.565757     0.000000 
  35.523000   480.000000     0.002083   500.637969     0.000000 
  35.531000   482.000000     0.002075   499.761880     0.000000 
  35.539000   474.000000     0.002110   498.933732     0.000000 
  35.547000   486.000000     0.002058   498.150105     0.000000 
  35.555000   442.000000     0.002262   497.407876     0.000000 
  35.563000   450.000000     0.002222   496.704192     0.000000 
  35.571000   535.000000     0.001869   496.036439     0.000000 
  35.579000   434.000000     0.002304   495.402224     0.000000 
  35.587000   496.000000     0.002016   494.799346     0.000000 
  35.595000   521.000000     0.001919   494.225784     0.000000 
  35.603000   523.000000     0.001912   493.679676     0.000000 
  35.611000   513.000000     0.001949   493.159306     0.000000 
  35.619000   478.000000     0.002092   492.663089     0.000000 
  35.627000   458.000000     0.002183   492.189560     0.000000 
  35.635000   457.000000     0.002188   491.737364     0.000000 
  35.643000   439.000000     0.002278   491.305245     0.000000 
  35.651000   447.000000     0.002237   490.892038     0.000000 
  35.659000   450.000000     0.002222   490.496661     0.000000 
  35.667000   487.000000     0.002053   490.118109     0.000000 
  35.675000   506.000000     0.001976   489.755446     0.000000 
  35.683000   470.000000     0.002128   489.407801     0.000000 
  35.691000   484.000000     0.002066   489.074360     0.000000 
  35.699000   466.000000     0.002146   488.754366     0.000000 
  35.707000   428.000000     0.002336   488.447109     0.000000 
  35.715000   448.000000     0.002232   488.151926     0.000000 
  35.723000   471.000000     0.002123   487.868198     0.000000 
  35.731000   485.000000     0.002062   487.595344     0.000000 
  35.739000   508.000000     0.001969   487.332819     0.000000 
  35.747000   419.000000     0.002387   487.080112     0.000000 
  35.755000   390.000000     0.002564   486.836743     0.000000 
  35.763000   442.000000     0.002262   486.602262     0.000000 
  35.771000   440.000000     0.002273   486.376244     0.000000 
  35.779000   404.000000     0.002475   486.158291     0.000000 
  35.787000   478.000000     0.002092   485.948027     0.000000 
  35.795000   522.000000     0.001916   485.745097     0.000000 
  35.803000   536.000000     0.001866   485.549168     0.000000 
  35.811000   453.000000     0.002208   485.359924     0.000000 
  35.819000   417.000000     0.002398   485.177067     0.000000 
  35.827000   428.000000     0.002336   485.000316     0.000000 
  35.835000   485.000000     0.002062   484.829406     0.000000 
  35.843000   503.000000     0.001988   484.664083     0.000000 
  35.851000   468.000000     0.002137   484.504110     0.000000 
  35.859000   472.000000     0.002119   484.349262     0.000000 
  35.867000   470.000000     0.002128   484.199323     0.000000 
  35.875000   453.000000     0.002208   484.054092     0.000000 
  35.883000   455.000000     0.002198   483.913375     0.000000 
  35.891000   474.000000     0.002110   483.776990     0.000000 
  35.899000   461.000000     0.002169   483.644763     0.000000 
  35.907000   515.000000     0.001942   483.516528     0.000000 
  35.915000   508.000000     0.001969   483.392130     0.000000 
  35.923000   449.000000     0.002227   483.271417     0.000000 
  35.931000   420.000000     0.002381   483.154250     0.000000 
  35.939000   507.000000     0.001972   483.040491     0.000000 
  35.947000   494.000000     0.002024   482.930012     0.000000 
  35.955000   494.000000     0.002024   482.822690     0.000000 
  35.963000   457.000000     0.002188   482.718407     0.000000 
  35.971000   450.000000     0.002222   482.617053     0.000000 
  35.979000   431.000000     0.002320   482.518519     0.000000 
  35.987000   430.000000     0.002326   482.422705     0.000000 
  35.995000   407.000000     0.002457   482.329512     0.000000 
  36.003000   400.000000     0.002500   482.238848     0.000000 
  36.011000   416.000000     0.002404   482.150623     0.000000 
  36.019000   467.000000     0.002141   482.064752     0.000000 
  36.027000   461.000000     0.002169   481.981155     0.000000 
  36.035000   439.000000     0.002278   481.899753     0.000000 
  36.043000   434.000000     0.002304   481.820470     0.000000 
  36.051000   429.000000     0.002331   481.743237     0.000000 
  36.059000   466.000000     0.002146   477.126089     0.000000 
  36.067000   455.000000     0.002198   477.128020     0.000000 
  36.075000   520.000000     0.001923   477.129947     0.000000 
  36.083000   511.000000     0.001957   477.131870     0.000000 
  36.091000   505.000000     0.001980   477.133790     0.000000 
  36.099000   473.000000     0.002114   477.135707     0.000000 
  36.107000   471.000000     0.002123   477.137620     0.000000 
  36.115000   445.000000     0.002247   477.139529     0.000000 
  36.123000   429.000000     0.002331   477.141436     0.000000 
  36.131000   466.000000     0.002146   477.143339     0.000000 
  36.139000   477.000000     0.002096   477.145238     0.000000 
  36.147000   431.000000     0.002320   477.147134     0.000000 
  36.155000   432.000000     0.002315   477.149026     0.000000 
  36.163000   430.000000     0.002326   477.150916     0.000000 
  36.171000   404.000000     0.002475   477.152801     0.000000 
  36.179000   403.000000     0.002481   477.154683     0.000000 
  36.187000   408.000000     0.002451   477.156562     0.000000 
  36.195000   428.000000     0.002336   477.158438     0.000000 
  36.203000   448.000000     0.002232   477.160310     0.000000 
  36.211000   474.000000     0.002110   477.162178     0.000000 
  36.219000   493.000000     0.002028   477.164043     0.000000 
  36.227000   470.000000     0.002128   477.165905     0.000000 
  36.235000   463.000000     0.002160   477.167763     0.000000 
  36.243000   465.000000     0.002151   477.169618     0.000000 
  36.251000   417.000000     0.002398   477.171469     0.000000 
  36.259000   482.000000     0.002075   477.173317     0.000000 
  36.267000   489.000000     0.002045   477.175162     0.000000 
  36.275000   477.000000     0.002096   477.177003     0.000000 
  36.283000   475.000000     0.002105   477.178841     0.000000 
  36.291000   429.000000     0.002331   477.180675     0.000000 
  36.299000   440.000000     0.002273   477.182506     0.000000 
  36.307000   473.000000     0.002114   477.184333     0.000000 
  36.315000   423.000000     0.002364   477.186157     0.000000 
  36.323000   453.000000     0.002208   477.187977     0.000000 
  36.331000   467.000000     0.002141   477.189794     0.000000 
  36.339000   492.000000     0.002033   477.191608     0.000000 
  36.347000   449.000000     0.002227   477.193418     0.000000 
  36.355000   435.000000     0.002299   477.195225     0.000000 
  36.363000   423.000000     0.002364   477.197028     0.000000 
  36.371000   439.000000     0.002278   477.198828     0.000000 
  36.379000   461.000000     0.002169   477.200624     0.000000 
  36.387000   441.000000     0.002268   477.202417     0.000000 
  36.395000   443.000000     0.002257   477.204207     0.000000 
  36.403000   445.000000     0.002247   477.205993     0.000000 
  36.411000   435.000000     0.002299   477.207776     0.000000 
  36.419000   436.000000     0.002294   477.209555     0.000000 
  36.427000   430.000000     0.002326   477.211331     0.000000 
  36.435000   417.000000     0.002398   477.213103     0.000000 
  36.443000   438.000000     0.002283   477.214872     0.000000 
  36.451000   428.000000     0.002336   477.216638     0.000000 
  36.459000   459.000000     0.002179   477.218400     0.000000 
  36.467000   418.000000     0.002392   477.220159     0.000000 
  36.475000   486.000000     0.002058   477.221914     0.000000 
  36.483000   519.000000     0.001927   477.223666     0.000000 
  36.491000   480.000000     0.002083   477.225414     0.000000 
  36.499000   428.000000     0.002336   477.227159     0.000000 
  36.507000   486.000000     0.002058   477.228901     0.000000 
  36.515000   479.000000     0.002088   477.230639     0.000000 
  36.523000   488.000000     0.002049   477.232373     0.000000 
  36.531000   480.000000     0.002083   477.234104     0.000000 
  36.539000   474.000000     0.002110   477.235832     0.000000 
  36.547000   437.000000     0.002288   477.237556     0.000000 
  36.555000   445.000000     0.002247   477.239277     0.000000 
  36.563000   473.000000     0.002114   477.240995     0.000000 
  36.571000   410.000000     0.002439   477.242709     0.000000 
  36.579000   399.000000     0.002506   477.244419     0.000000 
  36.587000   429.000000     0.002331   478.041275     0.000000 
  36.595000   460.000000     0.002174   478.055023     0.000000 
  36.603000   455.000000     0.002198   478.069044     0.000000 
  36.611000   438.000000     0.002283   478.083345     0.000000 
  36.619000   443.000000     0.002257   478.097936     0.000000 
  36.627000   440.000000     0.002273   478.112825     0.000000 
  36.635000   405.000000     0.002469   478.128023     0.000000 
  36.643000   439.000000     0.002278   478.143539     0.000000 
  36.651000   494.000000     0.002024   478.159383     0.000000 
  36.659000   450.000000     0.002222   478.175566     0.000000 
  36.667000   514.000000     0.001946   478.192099     0.000000 
  36.675000   486.000000     0.002058   478.208993     0.000000 
  36.683000   496.000000     0.002016   478.226262     0.000000 
  36.691000   446.000000     0.002242   478.243916     0.000000 
  36.699000   437.000000     0.002288   478.261971     0.000000 
  36.707000   465.000000     0.002151   478.280438     0.000000 
  36.715000   403.000000     0.002481   478.299332     0.000000 
  36.723000   448.000000     0.002232   478.318668     0.000000 
  36.731000   495.000000     0.002020   478.338462     0.000000 
  36.739000   485.000000     0.002062   478.358730     0.000000 
  36.747000   455.000000     0.002198   478.379488     0.000000 
  36.755000   462.000000     0.002165   478.400754     0.000000 
  36.763000   426.000000     0.002347   478.422547     0.000000 
  36.771000   454.000000     0.002203   478.444886     0.000000 
  36.779000   457.000000     0.002188   478.467790     0.000000 
  36.787000   443.000000     0.002257   478.491282     0.000000 
  36.795000   448.000000     0.002232   478.515382     0.000000 
  36.803000   462.000000     0.002165   478.540115     0.000000 
  36.811000   472.000000     0.002119   478.565503     0.000000 
  36.819000   464.000000     0.002155   478.591574     0.000000 
  36.827000   453.000000     0.002208   478.618352     0.000000 
  36.835000   447.000000     0.002237   478.645867     0.000000 
  36.843000   480.000000     0.002083   478.674146     0.000000 
  36.851000   436.000000     0.002294   478.703222     0.000000 
  36.859000   468.000000     0.002137   478.733125     0.000000 
  36.867000   459.000000     0.002179   478.763890     0.000000 
  36.875000   456.000000     0.002193   478.795553     0.000000 
  36.883000   479.000000     0.002088   478.828151     0.000000 
  36.891000   402.000000     0.002488   478.861724     0.000000 
  36.899000   434.000000     0.002304   478.896312     0.000000 
  36.907000   489.000000     0.002045   478.931960     0.000000 
  36.915000   437.000000     0.002288   478.968713     0.000000 
  36.923000   423.000000     0.002364   479.006621     0.000000 
  36.931000   447.000000     0.002237   479.045735     0.000000 
  36.939000   449.000000     0.002227   479.086108     0.000000 
  36.947000   472.000000     0.002119   479.127799     0.000000 
  36.955000   445.000000     0.002247   479.170867     0.000000 
  36.963000   475.000000     0.002105   479.215377     0.000000 
  36.971000   490.000000     0.002041   479.261396     0.000000 
  36.979000   447.000000     0.002237   479.308997     0.000000 
  36.987000   459.000000     0.002179   479.358255     0.000000 
  36.995000   454.000000     0.002203   479.409251     0.000000 
  37.003000   444.000000     0.002252   479.462071     0.000000 
  37.011000   448.000000     0.002232   479.516805     0.000000 
  37.019000   474.000000     0.002110   479.573552     0.000000 
  37.027000   461.000000     0.002169   479.632412     0.000000 
  37.035000   431.000000     0.002320   479.693497     0.000000 
  37.043000   422.000000     0.002370   479.756923     0.000000 
  37.051000   471.000000     0.002123   479.822814     0.000000 
  37.059000   457.000000     0.002188   479.891303     0.000000 
  37.067000   404.000000     0.002475   479.962532     0.000000 
  37.075000   447.000000     0.002237   480.036653     0.000000 
  37.083000   407.000000     0.002457   480.113828     0.000000 
  37.091000   475.000000     0.002105   480.194231     0.000000 
  37.099000   468.000000     0.002137   480.278048     0.000000 
  37.107000   429.000000     0.002331   480.365480     0.000000 
  37.115000   449.000000     0.002227   480.456740     0.000000 
  37.123000   477.000000     0.002096   480.552060     0.000000 
  37.131000   462.000000     0.002165   480.651688     0.000000 
  37.139000   453.000000     0.002208   480.755893     0.000000 
  37.147000   457.000000     0.002188   480.864963     0.000000 
  37.155000   469.000000     0.002132   480.979210     0.000000 
  37.163000   471.000000     0.002123   481.098971     0.000000 
  37.171000   461.000000     0.002169   481.224612     0.000000 
  37.179000   489.000000     0.002045   481.356528     0.000000 
  37.187000   442.000000     0.002262   481.495150     0.000000 
  37.195000   450.000000     0.002222   481.640944     0.000000 
  37.203000   458.000000     0.002183   481.794418     0.000000 
  37.211000   447.000000     0.002237   481.956126     0.000000 
  37.219000   477.000000     0.002096   482.126673     0.000000 
  37.227000   456.000000     0.002193   482.306721     0.000000 
  37.235000   437.000000     0.002288   482.496992     0.000000 
  37.243000   421.000000     0.002375   482.698281     0.000000 
  37.251000   476.000000     0.002101   482.911459     0.000000 
  37.259000   453.000000     0.002208   483.137488     0.000000 
  37.267000   452.000000     0.002212   483.377424     0.000000 
  37.275000   437.000000     0.002288   483.632439     0.000000 
  37.283000   484.000000     0.002066   483.903825     0.000000 
  37.291000   453.000000     0.002208   484.193020     0.000000 
  37.299000   433.000000     0.002309   484.501618     0.000000 
  37.307000   427.000000     0.002342   484.831400     0.000000 
  37.315000   421.000000     0.002375   485.184350     0.000000 
  37.323000   444.000000     0.002252   485.562693     0.000000 
  37.331000   454.000000     0.002203   485.968924     0.000000 
  37.339000   482.000000     0.002075   486.405850     0.000000 
  37.347000   484.000000     0.002066   486.876642     0.000000 
  37.355000   478.000000     0.002092   487.384885     0.000000 
  37.363000   457.000000     0.002188   487.934652     0.000000 
  37.371000   471.000000     0.002123   488.530578     0.000000 
  37.379000   419.000000     0.002387   489.177964     0.000000 
  37.387000   443.000000     0.002257   489.882884     0.000000 
  37.395000   464.000000     0.002155   490.652333     0.000000 
  37.403000   429.000000     0.002331   491.494392     0.000000 
  37.411000   473.000000     0.002114   492.418438     0.000000 
  37.419000   493.000000     0.002028   493.435399     0.000000 
  37.427000   483.000000     0.002070   494.558068     0.000000 
  37.435000   430.000000     0.002326   495.801496     0.000000 
  37.443000   476.000000     0.002101   497.183482     0.000000 
  37.451000   488.000000     0.002049   498.725188     0.000000 
  37.459000   480.000000     0.002083   500.451926     0.000000 
  37.467000   467.000000     0.002141   502.394155     0.000000 
  37.475000   544.000000     0.001838   504.588777     0.000000 
  37.483000   547.000000     0.001828   507.080828     0.000000 
  37.491000   496.000000     0.002016   509.925746     0.000000 
  37.499000   520.000000     0.001923   513.192519     0.000000 
  37.507000   486.000000     0.002058   516.968322     0.000000 
  37.515000   477.000000     0.002096   521.365948     0.000000 
  37.523000   498.000000     0.002008   526.536660     0.000000 
  37.531000   550.000000     0.001818   532.693658     0.000000 
  37.539000   579.000000     0.001727   540.155054     0.000000 
  37.547000   623.000000     0.001605   549.419452     0.000000 
  37.555000   665.000000     0.001504   561.288481     0.000000 
  37.563000   708.000000     0.001412   577.042846     0.000000 
  37.571000   703.000000     0.001422   598.653916     0.000000 
  37.579000   702.000000     0.001425   628.968453     0.000000 
  37.587000   819.000000     0.001221   671.750751     0.000000 
  37.595000   865.000000     0.001156   731.433931     0.000000 
  37.603000   902.000000     0.001109   812.454663     0.000000 
  37.611000  1007.000000     0.000993   918.115916     0.000000 
  37.619000  1074.000000     0.000931  1048.929660     0.000000 
  37.627000  1195.000000     0.000837  1200.145043     0.000000 
  37.635000  1354.000000     0.000739  1357.851856     0.000000 
  37.643000  1468.000000     0.000681  1494.576306     0.000000 
  37.651000  1611.000000     0.000621  1571.836092     0.000000 
  37.659000  1764.000000     0.000567  1560.370455     0.000000 
  37.667000  1799.000000     0.000556  1464.901475     0.000000 
  37.675000  1683.000000     0.000594  1319.682775     0.000000 
  37.683000  1402.000000     0.000713  1161.603391     0.000000 
  37.691000  1119.000000     0.000894  1014.554877     0.000000 
  37.699000   906.000000     0.001104   889.748229     0.000000 
  37.707000   716.000000     0.001397   790.341886     0.000000 
  37.715000   677.000000     0.001477   714.948299     0.000000 
  37.723000   656.000000     0.001524   659.853713     0.000000 
  37.731000   581.000000     0.001721   620.535304     0.000000 
  37.739000   564.000000     0.001773   592.680399     0.000000 
  37.747000   537.000000     0.001862   572.741161     0.000000 
  37.755000   503.000000     0.001988   558.098053     0.000000 
  37.763000   515.000000     0.001942   546.969402     0.000000 
  37.771000   497.000000     0.002012   538.211310     0.000000 
  37.779000   508.000000     0.001969   531.111038     0.000000 
  37.787000   466.000000     0.002146   525.223738     0.000000 
  37.795000   514.000000     0.001946   520.262620     0.000000 
  37.803000   460.000000     0.002174   516.032769     0.000000 
  37.811000   516.000000     0.001938   512.394039     0.000000 
  37.819000   401.000000     0.002494   509.240861     0.000000 
  37.827000   450.000000     0.002222   506.491086     0.000000 
  37.835000   504.000000     0.001984   504.079420     0.000000 
  37.843000   497.000000     0.002012   501.953234     0.000000 
  37.851000   512.000000     0.001953   500.069677     0.000000 
  37.859000   507.000000     0.001972   498.393575     0.000000 
  37.867000   499.000000     0.002004   496.895841     0.000000 
  37.875000   485.000000     0.002062   495.552268     0.000000 
  37.883000   481.000000     0.002079   494.342587     0.000000 
  37.891000   449.000000     0.002227   493.249726     0.000000 
  37.899000   463.000000     0.002160   492.259233     0.000000 
  37.907000   463.000000     0.002160   491.358806     0.000000 
  37.915000   501.000000     0.001996   490.537925     0.000000 
  37.923000   491.000000     0.002037   489.787553     0.000000 
  37.931000   484.000000     0.002066   489.099896     0.000000 
  37.939000   470.000000     0.002128   488.468199     0.000000 
  37.947000   451.000000     0.002217   487.886590     0.000000 
  37.955000   419.000000     0.002387   487.349942     0.000000 
  37.963000   508.000000     0.001969   486.853767     0.000000 
  37.971000   496.000000     0.002016   486.394118     0.000000 
  37.979000   437.000000     0.002288   485.967518     0.000000 
  37.987000   449.000000     0.002227   485.570892     0.000000 
  37.995000   524.000000     0.001908   485.201512     0.000000 
  38.003000   431.000000     0.002320   484.856953     0.000000 
  38.011000   466.000000     0.002146   484.535054     0.000000 
  38.019000   421.000000     0.002375   484.233881     0.000000 
  38.027000   465.000000     0.002151   483.951704     0.000000 
  38.035000   438.000000     0.002283   483.686968     0.000000 
  38.043000   414.000000     0.002415   483.438273     0.000000 
  38.051000   501.000000     0.001996   483.204356     0.000000 
  38.059000   485.000000     0.002062   482.984078     0.000000 
  38.067000   448.000000     0.002232   482.776404     0.000000 
  38.075000   494.000000     0.002024   482.580398     0.000000 
  38.083000   491.000000     0.002037   482.395207     0.000000 
  38.091000   426.000000     0.002347   482.220056     0.000000 
  38.099000   461.000000     0.002169   482.054237     0.000000 
  38.107000   468.000000     0.002137   481.897102     0.000000 
  38.115000   465.000000     0.002151   481.748061     0.000000 
  38.123000   460.000000     0.002174   481.606572     0.000000 
  38.131000   468.000000     0.002137   481.472136     0.000000 
  38.139000   493.000000     0.002028   481.344296     0.000000 
  38.147000   453.000000     0.002208   481.222631     0.000000 
  38.155000   472.000000     0.002119   481.106753     0.000000 
  38.163000   430.000000     0.002326   480.996304     0.000000 
  38.171000   445.000000     0.002247   480.890953     0.000000 
  38.179000   453.000000     0.002208   480.790395     0.000000 
  38.187000   534.000000     0.001873   480.694344     0.000000 
  38.195000   513.000000     0.001949   480.602539     0.000000 
  38.203000   462.000000     0.002165   480.514736     0.000000 
  38.211000   484.000000     0.002066   480.430707     0.000000 
  38.219000   440.000000     0.002273   480.350242     0.000000 
  38.227000   417.000000     0.002398   480.273144     0.000000 
  38.235000   440.000000     0.002273   480.199230     0.000000 
  38.243000   439.000000     0.002278   480.128329     0.000000 
  38.251000   479.000000     0.002088   480.060281     0.000000 
  38.259000   506.000000     0.001976   479.994938     0.000000 
  38.267000   496.000000     0.002016   479.932159     0.000000 
  38.275000   468.000000     0.002137   479.871815     0.000000 
  38.283000   418.000000     0.002392   479.813781     0.000000 
  38.291000   398.000000     0.002513   479.757945     0.000000 
  38.299000   405.000000     0.002469   479.704196     0.000000 
  38.307000   416.000000     0.002404   479.652435     0.000000 
  38.315000   460.000000     0.002174   479.602566     0.000000 
  38.323000   479.000000     0.002088   479.554500     0.000000 
  38.331000   459.000000     0.002179   479.508151     0.000000 
  38.339000   455.000000     0.002198   479.463440     0.000000 
  38.347000   462.000000     0.002165   479.420292     0.000000 
  38.355000   430.000000     0.002326   479.378637     0.000000 
  38.363000   481.000000     0.002079   479.338408     0.000000 
  38.371000   473.000000     0.002114   479.299540     0.000000 
  38.379000   482.000000     0.002075   479.261976     0.000000 
  38.387000   479.000000     0.002088   479.225658     0.000000 
  38.395000   500.000000     0.002000   479.190532     0.000000 
  38.403000   464.000000     0.002155   479.156549     0.000000 
  38.411000   444.000000     0.002252   479.123660     0.000000 
  38.419000   434.000000     0.002304   479.091820     0.000000 
  38.427000   452.000000     0.002212   479.060985     0.000000 
  38.435000   450.000000     0.002222   479.031114     0.000000 
  38.443000   471.000000     0.002123   479.002170     0.000000 
  38.451000   474.000000     0.002110   478.974114     0.000000 
  38.459000   439.000000     0.002278   478.946911     0.000000 
  38.467000   434.000000     0.002304   478.920528     0.000000 
  38.475000   444.000000     0.002252   478.894934     0.000000 
  38.483000   444.000000     0.002252   478.870097     0.000000 
  38.491000   435.000000     0.002299   478.845989     0.000000 
  38.499000   440.000000     0.002273   478.822583     0.000000 
  38.507000   469.000000     0.002132   478.799852     0.000000 
  38.515000   490.000000     0.002041   478.777771     0.000000 
  38.523000   498.000000     0.002008   478.756316     0.000000 
  38.531000   460.000000     0.002174   478.735465     0.000000 
  38.539000   472.000000     0.002119   478.715196     0.000000 
  38.547000   472.000000     0.002119   478.695487     0.000000 
  38.555000   467.000000     0.002141   478.676320     0.000000 
  38.563000   456.000000     0.002193   478.657674     0.000000 
  38.571000   454.000000     0.002203   478.639532     0.000000 
  38.579000   451.000000     0.002217   478.621877     0.000000 
  38.587000   522.000000     0.001916   478.604691     0.000000 
  38.595000   477.000000     0.002096   478.587959     0.000000 
  38.603000   423.000000     0.002364   478.571665     0.000000 
  38.611000   454.000000     0.002203   478.555795     0.000000 
  38.619000   436.000000     0.002294   478.540334     0.000000 
  38.627000   449.000000     0.002227   478.525270     0.000000 
  38.635000   481.000000     0.002079   478.510589     0.000000 
  38.643000   461.000000     0.002169   478.496278     0.000000 
  38.651000   484.000000     0.002066   478.482326     0.000000 
  38.659000   516.000000     0.001938   478.468722     0.000000 
  38.667000   503.000000     0.001988   478.455454     0.000000 
  38.675000   491.000000     0.002037   478.442512     0.000000 
  38.683000   478.000000     0.002092   478.429885     0.000000 
  38.691000   478.000000     0.002092   478.417564     0.000000 
  38.699000   493.000000     0.002028   478.405539     0.000000 
  38.707000   508.000000     0.001969   478.393802     0.000000 
  38.715000   444.000000     0.002252   478.382343     0.000000 
  38.723000   469.000000     0.002132   478.371154     0.000000 
  38.731000   482.000000     0.002075   477.579715     0.000000 
  38.739000   431.000000     0.002320   477.580498     0.000000 
  38.747000   462.000000     0.002165   477.581277     0.000000 
  38.755000   426.000000     0.002347   477.582053     0.000000 
  38.763000   441.000000     0.002268   477.582825     0.000000 
  38.771000   481.000000     0.002079   477.583595     0.000000 
  38.779000   463.000000     0.002160   477.584360     0.000000 
  38.787000   452.000000     0.002212   477.585122     0.000000 
  38.795000   455.000000     0.002198   477.585881     0.000000 
  38.803000   464.000000     0.002155   477.586636     0.000000 
  38.811000   471.000000     0.002123   477.587388     0.000000 
  38.819000   491.000000     0.002037   477.588137     0.000000 
  38.827000   498.000000     0.002008   477.588882     0.000000 
  38.835000   497.000000     0.002012   479.842594     0.000000 
  38.843000   498.000000     0.002008   479.874482     0.000000 
  38.851000   503.000000     0.001988   479.907016     0.000000 
  38.859000   488.000000     0.002049   479.940216     0.000000 
  38.867000   455.000000     0.002198   479.974099     0.000000 
  38.875000   456.000000     0.002193   480.008686     0.000000 
  38.883000   484.000000     0.002066   480.043996     0.000000 
  38.891000   503.000000     0.001988   480.080051     0.000000 
  38.899000   466.000000     0.002146   480.116873     0.000000 
  38.907000   485.000000     0.002062   480.154483     0.000000 
  38.915000   442.000000     0.002262   480.192905     0.000000 
  38.923000   451.000000     0.002217   480.232164     0.000000 
  38.931000   465.000000     0.002151   480.272284     0.000000 
  38.939000   467.000000     0.002141   480.313292     0.000000 
  38.947000   444.000000     0.002252   480.355214     0.000000 
  38.955000   479.000000     0.002088   480.398079     0.000000 
  38.963000   500.000000     0.002000   480.441916     0.000000 
  38.971000   491.000000     0.002037   480.486754     0.000000 
  38.979000   459.000000     0.002179   480.532627     0.000000 
  38.987000   452.000000     0.002212   480.579565     0.000000 
  38.995000   463.000000     0.002160   480.627604     0.000000 
  39.003000   452.000000     0.002212   480.676779     0.000000 
  39.011000   423.000000     0.002364   480.727126     0.000000 
  39.019000   467.000000     0.002141   480.778684     0.000000 
  39.027000   486.000000     0.002058   480.831492     0.000000 
  39.035000   490.000000     0.002041   480.885593     0.000000 
  39.043000   513.000000     0.001949   480.941028     0.000000 
  39.051000   520.000000     0.001923   480.997845     0.000000 
  39.059000   487.000000     0.002053   481.056089     0.000000 
  39.067000   457.000000     0.002188   481.115809     0.000000 
  39.075000   489.000000     0.002045   481.177056     0.000000 
  39.083000   518.000000     0.001931   481.239885     0.000000 
  39.091000   523.000000     0.001912   481.304350     0.000000 
  39.099000   453.000000     0.002208   481.370510     0.000000 
  39.107000   524.000000     0.001908   481.438425     0.000000 
  39.115000   552.000000     0.001812   481.508159     0.000000 
  39.123000   499.000000     0.002004   481.579778     0.000000 
  39.131000   522.000000     0.001916   481.653351     0.000000 
  39.139000   471.000000     0.002123   481.728952     0.000000 
  39.147000   487.000000     0.002053   481.806656     0.000000 
  39.155000   421.000000     0.002375   481.886542     0.000000 
  39.163000   459.000000     0.002179   481.968695     0.000000 
  39.171000   463.000000     0.002160   482.053201     0.000000 
  39.179000   456.000000     0.002193   482.140153     0.000000 
  39.187000   463.000000     0.002160   482.229646     0.000000 
  39.195000   480.000000     0.002083   482.321781     0.000000 
  39.203000   480.000000     0.002083   482.416664     0.000000 
  39.211000   458.000000     0.002183   482.514407     0.000000 
  39.219000   471.000000     0.002123   482.615126     0.000000 
  39.227000   478.000000     0.002092   482.718944     0.000000 
  39.235000   467.000000     0.002141   482.825991     0.000000 
  39.243000   470.000000     0.002128   482.936404     0.000000 
  39.251000   478.000000     0.002092   483.050324     0.000000 
  39.259000   503.000000     0.001988   483.167905     0.000000 
  39.267000   474.000000     0.002110   483.289304     0.000000 
  39.275000   515.000000     0.001942   483.414690     0.000000 
  39.283000   505.000000     0.001980   483.544242     0.000000 
  39.291000   433.000000     0.002309   483.678145     0.000000 
  39.299000   485.000000     0.002062   483.816598     0.000000 
  39.307000   456.000000     0.002193   483.959812     0.000000 
  39.315000   470.000000     0.002128   484.108006     0.000000 
  39.323000   466.000000     0.002146   484.261417     0.000000 
  39.331000   494.000000     0.002024   484.420292     0.000000 
  39.339000   500.000000     0.002000   484.584895     0.000000 
  39.347000   467.000000     0.002141   484.755506     0.000000 
  39.355000   400.000000     0.002500   484.932422     0.000000 
  39.363000   466.000000     0.002146   485.115958     0.000000 
  39.371000   453.000000     0.002208   485.306450     0.000000 
  39.379000   453.000000     0.002208   485.504254     0.000000 
  39.387000   457.000000     0.002188   485.709750     0.000000 
  39.395000   471.000000     0.002123   485.923344     0.000000 
  39.403000   490.000000     0.002041   486.145467     0.000000 
  39.411000   509.000000     0.001965   486.376580     0.000000 
  39.419000   502.000000     0.001992   486.617176     0.000000 
  39.427000   499.000000     0.002004   486.867781     0.000000 
  39.435000   470.000000     0.002128   487.128959     0.000000 
  39.443000   479.000000     0.002088   487.401314     0.000000 
  39.451000   517.000000     0.001934   487.685492     0.000000 
  39.459000   515.000000     0.001942   487.982190     0.000000 
  39.467000   484.000000     0.002066   488.292154     0.000000 
  39.475000   459.000000     0.002179   488.616186     0.000000 
  39.483000   477.000000     0.002096   488.955151     0.000000 
  39.491000   457.000000     0.002188   489.309981     0.000000 
  39.499000   466.000000     0.002146   489.681682     0.000000 
  39.507000   474.000000     0.002110   490.071338     0.000000 
  39.515000   464.000000     0.002155   490.480126     0.000000 
  39.523000   425.000000     0.002353   490.909318     0.000000 
  39.531000   441.000000     0.002268   491.360292     0.000000 
  39.539000   502.000000     0.001992   491.834547     0.000000 
  39.547000   500.000000     0.002000   492.333711     0.000000 
  39.555000   483.000000     0.002070   492.859557     0.000000 
  39.563000   465.000000     0.002151   493.414018     0.000000 
  39.571000   468.000000     0.002137   493.999204     0.000000 
  39.579000   507.000000     0.001972   494.617423     0.000000 
  39.587000   510.000000     0.001961   495.271205     0.000000 
  39.595000   514.000000     0.001946   495.963323     0.000000 
  39.603000   498.000000     0.002008   496.696826     0.000000 
  39.611000   470.000000     0.002128   497.475072     0.000000 
  39.619000   503.000000     0.001988   498.301764     0.000000 
  39.627000   548.000000     0.001825   499.180996     0.000000 
  39.635000   510.000000     0.001961   500.117301     0.000000 
  39.643000   517.000000     0.001934   501.115708     0.000000 
  39.651000   534.000000     0.001873   502.181813     0.000000 
  39.659000   507.000000     0.001972   503.321852     0.000000 
  39.667000   523.000000     0.001912   504.542791     0.000000 
  39.675000   528.000000     0.001894   505.852436     0.000000 
  39.683000   474.000000     0.002110   507.259548     0.000000 
  39.691000   501.000000     0.001996   508.773991     0.000000 
  39.699000   457.000000     0.002188   510.406906     0.000000 
  39.707000   479.000000     0.002088   512.170902     0.000000 
  39.715000   529.000000     0.001890   514.080305     0.000000 
  39.723000   496.000000     0.002016   516.151436     0.000000 
  39.731000   464.000000     0.002155   518.402952     0.000000 
  39.739000   516.000000     0.001938   520.856262     0.000000 
  39.747000   558.000000     0.001792   523.536016     0.000000 
  39.755000   548.000000     0.001825   526.470713     0.000000 
  39.763000   552.000000     0.001812   529.693433     0.000000 
  39.771000   525.000000     0.001905   533.242741     0.000000 
  39.779000   498.000000     0.002008   537.163805     0.000000 
  39.787000   529.000000     0.001890   541.509779     0.000000 
  39.795000   556.000000     0.001799   546.343541     0.000000 
  39.803000   589.000000     0.001698   551.739871     0.000000 
  39.811000   588.000000     0.001701   557.788244     0.000000 
  39.819000   589.000000     0.001698   564.596430     0.000000 
  39.827000   612.000000     0.001634   572.295285     0.000000 
  39.835000   662.000000     0.001511   581.045392     0.000000 
  39.843000   679.000000     0.001473   591.046832     0.000000 
  39.851000   680.000000     0.001471   602.554692     0.000000 
  39.859000   719.000000     0.001391   615.905259     0.000000 
  39.867000   780.000000     0.001282   631.561966     0.000000 
  39.875000   815.000000     0.001227   650.195862     0.000000 
  39.883000   898.000000     0.001114   672.821598     0.000000 
  39.891000   934.000000     0.001071   701.012423     0.000000 
  39.899000   973.000000     0.001028   737.209100     0.000000 
  39.907000  1031.000000     0.000970   785.107964     0.000000 
  39.915000  1170.000000     0.000855   850.056155     0.000000 
  39.923000  1232.000000     0.000812   939.303751     0.000000 
  39.931000  1425.000000     0.000702  1061.891343     0.000000 
  39.939000  1628.000000     0.000614  1227.934415     0.000000 
  39.947000  1874.000000     0.000534  1447.138261     0.000000 
  39.955000  2178.000000     0.000459  1726.503789     0.000000 
  39.963000  2523.000000     0.000396  2067.196145     0.000000 
  39.971000  2992.000000     0.000334  2460.190974     0.000000 
  39.979000  3561.000000     0.000281  2879.747495     0.000000 
  39.987000  4173.000000     0.000240  3275.017989     0.000000 
  39.995000  4792.000000     0.000209  3567.818349     0.000000 
  40.003000  5307.000000     0.000188  3675.518024     0.000000 
  40.011000  5631.000000     0.000178  3561.484883     0.000000 
  40.019000  5353.000000     0.000187  3264.386414     0.000000 
  40.027000  4590.000000     0.000218  2867.383912     0.000000 
  40.035000  3477.000000     0.000288  2448.019117     0.000000 
  40.043000  2512.000000     0.000398  2056.299251     0.000000 
  40.051000  1913.000000     0.000523  1717.351765     0.000000 
  40.059000  1462.000000     0.000684  1439.818517     0.000000 
  40.067000  1234.000000     0.000810  1222.306809     0.000000 
  40.075000  1008.000000     0.000992  1057.695079     0.000000 
  40.083000   991.000000     0.001009   936.236726     0.000000 
  40.091000   870.000000     0.001149   847.830553     0.000000 
  40.099000   926.000000     0.001080   783.481970     0.000000 
  40.107000   909.000000     0.001100   735.997846     0.000000 
  40.115000   842.000000     0.001188   700.084607     0.000000 
  40.123000   779.000000     0.001284   672.088957     0.000000 
  40.131000   673.000000     0.001486   649.601088     0.000000 
  40.139000   743.000000     0.001346   631.068254     0.000000 
  40.147000   737.000000     0.001357   615.488635     0.000000 
  40.155000   662.000000     0.001511   602.198953     0.000000 
  40.163000   643.000000     0.001555   590.740488     0.000000 
  40.171000   603.000000     0.001658   580.779892     0.000000 
  40.179000   618.000000     0.001618   572.064014     0.000000 
  40.187000   548.000000     0.001825   564.394128     0.000000 
  40.195000   570.000000     0.001754   557.610651     0.000000 
  40.203000   471.000000     0.002123   551.583496     0.000000 
  40.211000   457.000000     0.002188   546.205494     0.000000 
  40.219000   481.000000     0.002079   541.387651     0.000000 
  40.227000   541.000000     0.001848   537.055579     0.000000 
  40.235000   542.000000     0.001845   533.146714     0.000000 
  40.243000   491.000000     0.002037   529.608162     0.000000 
  40.251000   461.000000     0.002169   526.394969     0.000000 
  40.259000   483.000000     0.002070   523.468747     0.000000 
  40.267000   505.000000     0.001980   520.796562     0.000000 
  40.275000   500.000000     0.002000   518.350041     0.000000 
  40.283000   523.000000     0.001912   516.104636     0.000000 
  40.291000   498.000000     0.002008   514.039029     0.000000 
  40.299000   491.000000     0.002037   512.134634     0.000000 
  40.307000   505.000000     0.001980   510.375195     0.000000 
  40.315000   517.000000     0.001934   508.746441     0.000000 
  40.323000   527.000000     0.001898   507.235809     0.000000 
  40.331000   531.000000     0.001883   505.832200     0.000000 
  40.339000   534.000000     0.001873   504.525784     0.000000 
  40.347000   506.000000     0.001976   503.307828     0.000000 
  40.355000   480.000000     0.002083   502.170556     0.000000 
  40.363000   479.000000     0.002088   501.107024     0.000000 
  40.371000   485.000000     0.002062   500.111015     0.000000 
  40.379000   509.000000     0.001965   499.176952     0.000000 
  40.387000   508.000000     0.001969   498.299821     0.000000 
  40.395000   473.000000     0.002114   497.475103     0.000000 
  40.403000   482.000000     0.002075   496.698716     0.000000 
  40.411000   460.000000     0.002174   495.966967     0.000000 
  40.419000   528.000000     0.001894   495.276510     0.000000 
  40.427000   487.000000     0.002053   494.624303     0.000000 
  40.435000   484.000000     0.002066   494.007580     0.000000 
  40.443000   407.000000     0.002457   493.423819     0.000000 
  40.451000   462.000000     0.002165   492.870719     0.000000 
  40.459000   504.000000     0.001984   492.346174     0.000000 
  40.467000   474.000000     0.002110   491.848256     0.000000 
  40.475000   522.000000     0.001916   491.375196     0.000000 
  40.483000   500.000000     0.002000   490.925372     0.000000 
  40.491000   460.000000     0.002174   490.497287     0.000000 
  40.499000   483.000000     0.002070   490.089568     0.000000 
  40.507000   484.000000     0.002066   489.700943     0.000000 
  40.515000   493.000000     0.002028   489.330242     0.000000 
  40.523000   450.000000     0.002222   488.976380     0.000000 
  40.531000   448.000000     0.002232   488.638354     0.000000 
  40.539000   457.000000     0.002188   488.315235     0.000000 
  40.547000   506.000000     0.001976   488.006160     0.000000 
  40.555000   500.000000     0.002000   487.710328     0.000000 
  40.563000   491.000000     0.002037   487.426993     0.000000 
  40.571000   485.000000     0.002062   487.155463     0.000000 
  40.579000   443.000000     0.002257   486.895091     0.000000 
  40.587000   489.000000     0.002045   486.645275     0.000000 
  40.595000   487.000000     0.002053   486.405453     0.000000 
  40.603000   471.000000     0.002123   486.175097     0.000000 
  40.611000   480.000000     0.002083   485.953718     0.000000 
  40.619000   441.000000     0.002268   485.740856     0.000000 
  40.627000   488.000000     0.002049   485.536078     0.000000 
  40.635000   515.000000     0.001942   485.338981     0.000000 
  40.643000   527.000000     0.001898   485.149185     0.000000 
  40.651000   467.000000     0.002141   484.966335     0.000000 
  40.659000   439.000000     0.002278   484.790095     0.000000 
  40.667000   490.000000     0.002041   484.620151     0.000000 
  40.675000   494.000000     0.002024   484.456207     0.000000 
  40.683000   490.000000     0.002041   484.297983     0.000000 
  40.691000   442.000000     0.002262   484.145216     0.000000 
  40.699000   421.000000     0.002375   483.997658     0.000000 
  40.707000   448.000000     0.002232   483.855074     0.000000 
  40.715000   480.000000     0.002083   483.717244     0.000000 
  40.723000   515.000000     0.001942   483.583958     0.000000 
  40.731000   481.000000     0.002079   483.455018     0.000000 
  40.739000   433.000000     0.002309   483.330238     0.000000 
  40.747000   441.000000     0.002268   483.209440     0.000000 
  40.755000   492.000000     0.002033   483.092456     0.000000 
  40.763000   489.000000     0.002045   482.979127     0.000000 
  40.771000   473.000000     0.002114   482.869303     0.000000 
  40.779000   473.000000     0.002114   482.762839     0.000000 
  40.787000   498.000000     0.002008   482.659601     0.000000 
  40.795000   527.000000     0.001898   482.559458     0.000000 
  40.803000   508.000000     0.001969   482.462288     0.000000 
  40.811000   442.000000     0.002262   482.367974     0.000000 
  40.819000   450.000000     0.002222   482.276405     0.000000 
  40.827000   438.000000     0.002283   482.187475     0.000000 
  40.835000   464.000000     0.002155   482.101084     0.000000 
  40.843000   503.000000     0.001988   482.017135     0.000000 
  40.851000   481.000000     0.002079   481.935537     0.000000 
  40.859000   478.000000     0.002092   481.856203     0.000000 
  40.867000   448.000000     0.002232   481.779049     0.000000 
  40.875000   475.000000     0.002105   481.703996     0.000000 
  40.883000   459.000000     0.002179   481.630968     0.000000 
  40.891000   418.000000     0.002392   481.559893     0.000000 
  40.899000   408.000000     0.002451   481.490701     0.000000 
  40.907000   444.000000     0.002252   481.423325     0.000000 
  40.915000   492.000000     0.002033   481.357704     0.000000 
  40.923000   484.000000     0.002066   481.293775     0.000000 
  40.931000   454.000000     0.002203   481.231481     0.000000 
  40.939000   438.000000     0.002283   481.170767     0.000000 
  40.947000   434.000000     0.002304   481.111579     0.000000 
  40.955000   438.000000     0.002283   481.053865     0.000000 
  40.963000   501.000000     0.001996   480.997578     0.000000 
  40.971000   477.000000     0.002096   480.942669     0.000000 
  40.979000   461.000000     0.002169   480.889095     0.000000 
  40.987000   477.000000     0.002096   480.836812     0.000000 
  40.995000   493.000000     0.002028   480.785779     0.000000 
  41.003000   527.000000     0.001898   480.735955     0.000000 
  41.011000   465.000000     0.002151   480.687302     0.000000 
  41.019000   434.000000     0.002304   480.639784     0.000000 
  41.027000   426.000000     0.002347   480.593365     0.000000 
  41.035000   456.000000     0.002193   480.548012     0.000000 
  41.043000   512.000000     0.001953   480.503691     0.000000 
  41.051000   485.000000     0.002062   480.460372     0.000000 
  41.059000   488.000000     0.002049   480.418024     0.000000 
  41.067000   475.000000     0.002105   480.376617     0.000000 
  41.075000   463.000000     0.002160   480.336124     0.000000 
  41.083000   479.000000     0.002088   480.296519     0.000000 
  41.091000   488.000000     0.002049   480.257774     0.000000 
  41.099000   480.000000     0.002083   480.219864     0.000000 
  41.107000   465.000000     0.002151   480.182766     0.000000 
  41.115000   470.000000     0.002128   480.146457     0.000000 
  41.123000   456.000000     0.002193   480.110913     0.000000 
  41.131000   444.000000     0.002252   480.076113     0.000000 
  41.139000   456.000000     0.002193   480.042036     0.000000 
  41.147000   449.000000     0.002227   480.008663     0.000000 
  41.155000   489.000000     0.002045   479.975972     0.000000 
  41.163000   468.000000     0.002137   479.943946     0.000000 
  41.171000   465.000000     0.002151   479.912567     0.000000 
  41.179000   482.000000     0.002075   477.660255     0.000000 
  41.187000   464.000000     0.002155   477.659999     0.000000 
  41.195000   475.000000     0.002105   477.659740     0.000000 
  41.203000   444.000000     0.002252   477.659478     0.000000 
  41.211000   476.000000     0.002101   477.659212     0.000000 
  41.219000   504.000000     0.001984   477.658943     0.000000 
  41.227000   485.000000     0.002062   477.658670     0.000000 
  41.235000   438.000000     0.002283   477.658395     0.000000 
  41.243000   459.000000     0.002179   477.658115     0.000000 
  41.251000   489.000000     0.002045   477.657833     0.000000 
  41.259000   456.000000     0.002193   477.657547     0.000000 
  41.267000   470.000000     0.002128   477.657258     0.000000 
  41.275000   485.000000     0.002062   477.656965     0.000000 
  41.283000   474.000000     0.002110   477.656669     0.000000 
  41.291000   466.000000     0.002146   477.656370     0.000000 
  41.299000   452.000000     0.002212   477.656068     0.000000 
  41.307000   465.000000     0.002151   477.655762     0.000000 
  41.315000   487.000000     0.002053   477.655452     0.000000 
  41.323000   492.000000     0.002033   477.655140     0.000000 
  41.331000   486.000000     0.002058   477.654824     0.000000 
  41.339000   483.000000     0.002070   477.654504     0.000000 
  41.347000   497.000000     0.002012   477.654182     0.000000 
  41.355000   424.000000     0.002358   477.653856     0.000000 
  41.363000   476.000000     0.002101   477.653527     0.000000 
  41.371000   497.000000     0.002012   477.653194     0.000000 
  41.379000   502.000000     0.001992   477.652858     0.000000 
  41.387000   448.000000     0.002232   477.652519     0.000000 
  41.395000   468.000000     0.002137   477.652176     0.000000 
  41.403000   490.000000     0.002041   477.651830     0.000000 
  41.411000   486.000000     0.002058   477.651480     0.000000 
  41.419000   457.000000     0.002188   477.651128     0.000000 
  41.427000   481.000000     0.002079   477.650772     0.000000 
  41.435000   471.000000     0.002123   477.650412     0.000000 
  41.443000   446.000000     0.002242   477.650050     0.000000 
  41.451000   474.000000     0.002110   477.649684     0.000000 
  41.459000   488.000000     0.002049   477.649314     0.000000 
  41.467000   481.000000     0.002079   477.648941     0.000000 
  41.475000   477.000000     0.002096   477.648565     0.000000 
  41.483000   457.000000     0.002188   477.648186     0.000000 
  41.491000   463.000000     0.002160   477.647803     0.000000 
  41.499000   500.000000     0.002000   477.647417     0.000000 
  41.507000   510.000000     0.001961   477.647028     0.000000 
  41.515000   491.000000     0.002037   477.646635     0.000000 
  41.523000   472.000000     0.002119   477.646239     0.000000 
  41.531000   458.000000     0.002183   477.645840     0.000000 
  41.539000   452.000000     0.002212   477.645437     0.000000 
  41.547000   489.000000     0.002045   477.645031     0.000000 
  41.555000   457.000000     0.002188   477.644622     0.000000 
  41.563000   472.000000     0.002119   477.644209     0.000000 
  41.571000   516.000000     0.001938   477.643793     0.000000 
  41.579000   460.000000     0.002174   477.643373     0.000000 
  41.587000   417.000000     0.002398   477.642951     0.000000 
  41.595000   468.000000     0.002137   477.642525     0.000000 
  41.603000   482.000000     0.002075   477.642095     0.000000 
  41.611000   453.000000     0.002208   477.641663     0.000000 
  41.619000   412.000000     0.002427   477.641227     0.000000 
  41.627000   440.000000     0.002273   477.640787     0.000000 
  41.635000   458.000000     0.002183   477.640344     0.000000 
  41.643000   433.000000     0.002309   477.639898     0.000000 
  41.651000   432.000000     0.002315   477.639449     0.000000 
  41.659000   463.000000     0.002160   477.638996     0.000000 
  41.667000   469.000000     0.002132   477.638541     0.000000 
  41.675000   449.000000     0.002227   477.638081     0.000000 
  41.683000   453.000000     0.002208   477.637619     0.000000 
  41.691000   472.000000     0.002119   477.637153     0.000000 
  41.699000   465.000000     0.002151   477.636683     0.000000 
  41.707000   436.000000     0.002294   477.636211     0.000000 
  41.715000   461.000000     0.002169   477.635735     0.000000 
  41.723000   499.000000     0.002004   477.635256     0.000000 
  41.731000   501.000000     0.001996   477.634773     0.000000 
  41.739000   512.000000     0.001953   477.634287     0.000000 
  41.747000   455.000000     0.002198   477.633798     0.000000 
  41.755000   467.000000     0.002141   477.633305     0.000000 
  41.763000   448.000000     0.002232   477.632809     0.000000 
  41.771000   434.000000     0.002304   477.632310     0.000000 
  41.779000   455.000000     0.002198   477.631808     0.000000 
  41.787000   485.000000     0.002062   477.631302     0.000000 
  41.795000   510.000000     0.001961   477.630793     0.000000 
  41.803000   446.000000     0.002242   477.630280     0.000000 
  41.811000   445.000000     0.002247   477.629764     0.000000 
  41.819000   466.000000     0.002146   477.629245     0.000000 
  41.827000   437.000000     0.002288   477.628723     0.000000 
  41.835000   431.000000     0.002320   477.628197     0.000000 
  41.843000   428.000000     0.002336   477.627668     0.000000 
  41.851000   457.000000     0.002188   477.627136     0.000000 
  41.859000   480.000000     0.002083   477.626600     0.000000 
  41.867000   452.000000     0.002212   477.626061     0.000000 
  41.875000   463.000000     0.002160   477.625519     0.000000 
  41.883000   491.000000     0.002037   477.624973     0.000000 
  41.891000   488.000000     0.002049   477.624424     0.000000 
  41.899000   478.000000     0.002092   477.623872     0.000000 
  41.907000   489.000000     0.002045   477.623316     0.000000 
  41.915000   493.000000     0.002028   477.622758     0.000000 
  41.923000   504.000000     0.001984   477.622195     0.000000 
  41.931000   497.000000     0.002012   477.621630     0.000000 
  41.939000   463.000000     0.002160   477.621061     0.000000 
  41.947000   457.000000     0.002188   477.620489     0.000000 
  41.955000   478.000000     0.002092   477.619913     0.000000 
  41.963000   463.000000     0.002160   477.619335     0.000000 
  41.971000   435.000000     0.002299   477.618753     0.000000 
  41.979000   439.000000     0.002278   477.618167     0.000000 
  41.987000   435.000000     0.002299   477.617579     0.000000 
  41.995000   447.000000     0.002237   477.616987     0.000000 
  42.003000   456.000000     0.002193   477.616391     0.000000 
  42.011000   437.000000     0.002288   477.615793     0.000000 
  42.019000   464.000000     0.002155   477.615191     0.000000 
  42.027000   493.000000     0.002028   477.614586     0.000000 
  42.035000   487.000000     0.002053   477.613977     0.000000 
  42.043000   460.000000     0.002174   477.613365     0.000000 
  42.051000   489.000000     0.002045   477.612750     0.000000 
  42.059000   499.000000     0.002004   477.612132     0.000000 
  42.067000   426.000000     0.002347   477.611510     0.000000 
  42.075000   431.000000     0.002320   477.610885     0.000000 
  42.083000   469.000000     0.002132   477.610256     0.000000 
  42.091000   489.000000     0.002045   477.609625     0.000000 
  42.099000   532.000000     0.001880   477.608990     0.000000 
  42.107000   524.000000     0.001908   477.608352     0.000000 
  42.115000   432.000000     0.002315   477.607710     0.000000 
  42.123000   480.000000     0.002083   477.607065     0.000000 
  42.131000   476.000000     0.002101   477.606417     0.000000 
  42.139000   521.000000     0.001919   477.605766     0.000000 
  42.147000   436.000000     0.002294   477.605111     0.000000 
  42.155000   443.000000     0.002257   477.604453     0.000000 
  42.163000   414.000000     0.002415   477.603791     0.000000 
  42.171000   439.000000     0.002278   477.603127     0.000000 
  42.179000   490.000000     0.002041   477.602459     0.000000 
  42.187000   475.000000     0.002105   477.601787     0.000000 
  42.195000   447.000000     0.002237   477.601113     0.000000 
  42.203000   425.000000     0.002353   477.600435     0.000000 
  42.211000   428.000000     0.002336   477.599754     0.000000 
  42.219000   470.000000     0.002128   477.599069     0.000000 
  42.227000   503.000000     0.001988   477.598382     0.000000 
  42.235000   453.000000     0.002208   477.597691     0.000000 
  42.243000   415.000000     0.002410   477.596996     0.000000 
  42.251000   415.000000     0.002410   477.596299     0.000000 
  42.259000   456.000000     0.002193   477.595598     0.000000 
  42.267000   466.000000     0.002146   477.594893     0.000000 
  42.275000   455.000000     0.002198   477.594186     0.000000 
  42.283000   450.000000     0.002222   477.593475     0.000000 
  42.291000   442.000000     0.002262   477.592761     0.000000 
  42.299000   459.000000     0.002179   477.592044     0.000000 
  42.307000   491.000000     0.002037   477.591323     0.000000 
  42.315000   477.000000     0.002096   477.590599     0.000000 
  42.323000   506.000000     0.001976   477.589872     0.000000 
  42.331000   466.000000     0.002146   477.589141     0.000000 
  42.339000   433.000000     0.002309   477.588407     0.000000 
  42.347000   439.000000     0.002278   477.587670     0.000000 
  42.355000   464.000000     0.002155   477.586930     0.000000 
  42.363000   465.000000     0.002151   477.586186     0.000000 
  42.371000   452.000000     0.002212   477.585439     0.000000 
  42.379000   473.000000     0.002114   477.584689     0.000000 
  42.387000   490.000000     0.002041   477.583935     0.000000 
  42.395000   476.000000     0.002101   477.583178     0.000000 
  42.403000   479.000000     0.002088   477.582418     0.000000 
  42.411000   478.000000     0.002092   477.581655     0.000000 
  42.419000   478.000000     0.002092   477.580888     0.000000 
  42.427000   466.000000     0.002146   477.580118     0.000000 
  42.435000   429.000000     0.002331   477.579345     0.000000 
  42.443000   435.000000     0.002299   477.578568     0.000000 
  42.451000   449.000000     0.002227   477.577789     0.000000 
  42.459000   490.000000     0.002041   477.577005     0.000000 
  42.467000   472.000000     0.002119   477.576219     0.000000 
  42.475000   463.000000     0.002160   477.575429     0.000000 
  42.483000   479.000000     0.002088   477.574636     0.000000 
  42.491000   438.000000     0.002283   477.573840     0.000000 
  42.499000   478.000000     0.002092   477.573041     0.000000 
  42.507000   468.000000     0.002137   477.572238     0.000000 
  42.515000   481.000000     0.002079   477.571432     0.000000 
  42.523000   486.000000     0.002058   477.570622     0.000000 
  42.531000   439.000000     0.002278   477.569810     0.000000 
  42.539000   480.000000     0.002083   477.568994     0.000000 
  42.547000   492.000000     0.002033   477.568175     0.000000 
  42.555000   460.000000     0.002174   477.567352     0.000000 
  42.563000   464.000000     0.002155   477.566526     0.000000 
  42.571000   470.000000     0.002128   477.565697     0.000000 
  42.579000   474.000000     0.002110   477.564865     0.000000 
  42.587000   482.000000     0.002075   477.564030     0.000000 
  42.595000   462.000000     0.002165   477.563191     0.000000 
  42.603000   479.000000     0.002088   477.562349     0.000000 
  42.611000   464.000000     0.002155   477.561503     0.000000 
  42.619000   448.000000     0.002232   477.560654     0.000000 
  42.627000   480.000000     0.002083   477.559803     0.000000 
  42.635000   493.000000     0.002028   477.558947     0.000000 
  42.643000   450.000000     0.002222   477.558089     0.000000 
  42.651000   479.000000     0.002088   477.557227     0.000000 
  42.659000   456.000000     0.002193   477.556362     0.000000 
  42.667000   468.000000     0.002137   477.555494     0.000000 
  42.675000   439.000000     0.002278   477.554622     0.000000 
  42.683000   487.000000     0.002053   477.553747     0.000000 
  42.691000   438.000000     0.002283   477.552869     0.000000 
  42.699000   508.000000     0.001969   477.551988     0.000000 
  42.707000   497.000000     0.002012   477.551103     0.000000 
  42.715000   475.000000     0.002105   477.550215     0.000000 
  42.723000   488.000000     0.002049   477.549324     0.000000 
  42.731000   479.000000     0.002088   477.548430     0.000000 
  42.739000   471.000000     0.002123   477.547532     0.000000 
  42.747000   474.000000     0.002110   477.546631     0.000000 
  42.755000   468.000000     0.002137   477.545727     0.000000 
  42.763000   479.000000     0.002088   477.544819     0.000000 
  42.771000   511.000000     0.001957   477.543909     0.000000 
  42.779000   491.000000     0.002037   477.542995     0.000000 
  42.787000   489.000000     0.002045   477.542077     0.000000 
  42.795000   433.000000     0.002309   477.541157     0.000000 
  42.803000   435.000000     0.002299   477.540233     0.000000 
  42.811000   445.000000     0.002247   477.539306     0.000000 
  42.819000   466.000000     0.002146   477.538376     0.000000 
  42.827000   458.000000     0.002183   477.537442     0.000000 
  42.835000   448.000000     0.002232   477.536505     0.000000 
  42.843000   473.000000     0.002114   477.535565     0.000000 
  42.851000   488.000000     0.002049   477.534622     0.000000 
  42.859000   480.000000     0.002083   477.533675     0.000000 
  42.867000   516.000000     0.001938   477.532725     0.000000 
  42.875000   424.000000     0.002358   477.531772     0.000000 
  42.883000   421.000000     0.002375   477.530816     0.000000 
  42.891000   417.000000     0.002398   477.529856     0.000000 
  42.899000   469.000000     0.002132   477.528893     0.000000 
  42.907000   511.000000     0.001957   477.527927     0.000000 
  42.915000   431.000000     0.002320   477.526958     0.000000 
  42.923000   485.000000     0.002062   477.525985     0.000000 
  42.931000   496.000000     0.002016   477.525009     0.000000 
  42.939000   506.000000     0.001976   477.524030     0.000000 
  42.947000   521.000000     0.001919   477.523048     0.000000 
  42.955000   493.000000     0.002028   477.522062     0.000000 
  42.963000   446.000000     0.002242   477.521073     0.000000 
  42.971000   457.000000     0.002188   477.520081     0.000000 
  42.979000   451.000000     0.002217   477.519085     0.000000 
  42.987000   466.000000     0.002146   477.518087     0.000000 
  42.995000   464.000000     0.002155   477.517085     0.000000 
  43.003000   500.000000     0.002000   477.516080     0.000000 
  43.011000   480.000000     0.002083   477.515071     0.000000 
  43.019000   451.000000     0.002217   477.514060     0.000000 
  43.027000   506.000000     0.001976   477.513045     0.000000 
  43.035000   493.000000     0.002028   477.512027     0.000000 
  43.043000   460.000000     0.002174   477.511005     0.000000 
  43.051000   437.000000     0.002288   477.509980     0.000000 
  43.059000   437.000000     0.002288   477.508953     0.000000 
  43.067000   512.000000     0.001953   477.507921     0.000000 
  43.075000   500.000000     0.002000   477.506887     0.000000 
  43.083000   439.000000     0.002278   477.505849     0.000000 
  43.091000   504.000000     0.001984   477.504809     0.000000 
  43.099000   499.000000     0.002004   477.503764     0.000000 
  43.107000   469.000000     0.002132   477.502717     0.000000 
  43.115000   418.000000     0.002392   477.501667     0.000000 
  43.123000   420.000000     0.002381   477.500613     0.000000 
  43.131000   462.000000     0.002165   477.499556     0.000000 
  43.139000   480.000000     0.002083   477.498495     0.000000 
  43.147000   490.000000     0.002041   477.497432     0.000000 
  43.155000   482.000000     0.002075   477.496365     0.000000 
  43.163000   479.000000     0.002088   478.701798     0.000000 
  43.171000   484.000000     0.002066   478.715297     0.000000 
  43.179000   430.000000     0.002326   478.729058     0.000000 
  43.187000   427.000000     0.002342   478.743089     0.000000 
  43.195000   494.000000     0.002024   478.757394     0.000000 
  43.203000   472.000000     0.002119   478.771982     0.000000 
  43.211000   487.000000     0.002053   478.786859     0.000000 
  43.219000   520.000000     0.001923   478.802034     0.000000 
  43.227000   502.000000     0.001992   478.817512     0.000000 
  43.235000   475.000000     0.002105   478.833303     0.000000 
  43.243000   405.000000     0.002469   478.849414     0.000000 
  43.251000   431.000000     0.002320   478.865853     0.000000 
  43.259000   405.000000     0.002469   478.882629     0.000000 
  43.267000   417.000000     0.002398   478.899752     0.000000 
  43.275000   477.000000     0.002096   478.917229     0.000000 
  43.283000   431.000000     0.002320   478.935071     0.000000 
  43.291000   467.000000     0.002141   478.953287     0.000000 
  43.299000   483.000000     0.002070   478.971888     0.000000 
  43.307000   471.000000     0.002123   478.990883     0.000000 
  43.315000   458.000000     0.002183   479.010284     0.000000 
  43.323000   427.000000     0.002342   479.030102     0.000000 
  43.331000   448.000000     0.002232   479.050347     0.000000 
  43.339000   476.000000     0.002101   479.071033     0.000000 
  43.347000   476.000000     0.002101   479.092172     0.000000 
  43.355000   492.000000     0.002033   479.113775     0.000000 
  43.363000   477.000000     0.002096   479.135858     0.000000 
  43.371000   499.000000     0.002004   479.158432     0.000000 
  43.379000   477.000000     0.002096   479.181513     0.000000 
  43.387000   423.000000     0.002364   479.205114     0.000000 
  43.395000   485.000000     0.002062   479.229252     0.000000 
  43.403000   468.000000     0.002137   479.253942     0.000000 
  43.411000   458.000000     0.002183   479.279200     0.000000 
  43.419000   472.000000     0.002119   479.305044     0.000000 
  43.427000   491.000000     0.002037   479.331491     0.000000 
  43.435000   469.000000     0.002132   479.358559     0.000000 
  43.443000   489.000000     0.002045   479.386266     0.000000 
  43.451000   446.000000     0.002242   479.414634     0.000000 
  43.459000   486.000000     0.002058   479.443682     0.000000 
  43.467000   499.000000     0.002004   479.473432     0.000000 
  43.475000   512.000000     0.001953   479.503905     0.000000 
  43.483000   452.000000     0.002212   479.535124     0.000000 
  43.491000   480.000000     0.002083   479.567114     0.000000 
  43.499000   497.000000     0.002012   479.599899     0.000000 
  43.507000   491.000000     0.002037   479.633505     0.000000 
  43.515000   472.000000     0.002119   479.667958     0.000000 
  43.523000   476.000000     0.002101   479.703287     0.000000 
  43.531000   447.000000     0.002237   479.739521     0.000000 
  43.539000   454.000000     0.002203   479.776690     0.000000 
  43.547000   490.000000     0.002041   479.814826     0.000000 
  43.555000   474.000000     0.002110   479.853961     0.000000 
  43.563000   484.000000     0.002066   479.894130     0.000000 
  43.571000   461.000000     0.002169   479.935368     0.000000 
  43.579000   448.000000     0.002232   479.977714     0.000000 
  43.587000   463.000000     0.002160   480.021206     0.000000 
  43.595000   465.000000     0.002151   480.065884     0.000000 
  43.603000   466.000000     0.002146   480.111792     0.000000 
  43.611000   442.000000     0.002262   480.158974     0.000000 
  43.619000   467.000000     0.002141   480.207476     0.000000 
  43.627000   412.000000     0.002427   480.257346     0.000000 
  43.635000   480.000000     0.002083   480.308637     0.000000 
  43.643000   461.000000     0.002169   480.361401     0.000000 
  43.651000   450.000000     0.002222   480.415693     0.000000 
  43.659000   436.000000     0.002294   480.471573     0.000000 
  43.667000   461.000000     0.002169   480.529101     0.000000 
  43.675000   458.000000     0.002183   480.588342     0.000000 
  43.683000   447.000000     0.002237   480.649363     0.000000 
  43.691000   492.000000     0.002033   480.712234     0.000000 
  43.699000   480.000000     0.002083   480.777030     0.000000 
  43.707000   482.000000     0.002075   480.843830     0.000000 
  43.715000   461.000000     0.002169   480.912713     0.000000 
  43.723000   453.000000     0.002208   480.983768     0.000000 
  43.731000   447.000000     0.002237   481.057085     0.000000 
  43.739000   471.000000     0.002123   481.132758     0.000000 
  43.747000   461.000000     0.002169   481.210889     0.000000 
  43.755000   464.000000     0.002155   481.291583     0.000000 
  43.763000   475.000000     0.002105   481.374952     0.000000 
  43.771000   479.000000     0.002088   481.461113     0.000000 
  43.779000   477.000000     0.002096   481.550192     0.000000 
  43.787000   485.000000     0.002062   481.642319     0.000000 
  43.795000   498.000000     0.002008   481.737633     0.000000 
  43.803000   433.000000     0.002309   481.836280     0.000000 
  43.811000   464.000000     0.002155   481.938416     0.000000 
  43.819000   466.000000     0.002146   482.044206     0.000000 
  43.827000   481.000000     0.002079   482.153822     0.000000 
  43.835000   483.000000     0.002070   482.267450     0.000000 
  43.843000   517.000000     0.001934   482.385285     0.000000 
  43.851000   486.000000     0.002058   482.507536     0.000000 
  43.859000   474.000000     0.002110   482.634422     0.000000 
  43.867000   471.000000     0.002123   482.766180     0.000000 
  43.875000   486.000000     0.002058   482.903057     0.000000 
  43.883000   448.000000     0.002232   483.045321     0.000000 
  43.891000   455.000000     0.002198   483.193254     0.000000 
  43.899000   474.000000     0.002110   483.347159     0.000000 
  43.907000   455.000000     0.002198   483.507358     0.000000 
  43.915000   487.000000     0.002053   483.674196     0.000000 
  43.923000   485.000000     0.002062   483.848041     0.000000 
  43.931000   456.000000     0.002193   484.029286     0.000000 
  43.939000   463.000000     0.002160   484.218356     0.000000 
  43.947000   470.000000     0.002128   484.415701     0.000000 
  43.955000   459.000000     0.002179   484.621808     0.000000 
  43.963000   465.000000     0.002151   484.837198     0.000000 
  43.971000   437.000000     0.002288   485.062433     0.000000 
  43.979000   442.000000     0.002262   485.298117     0.000000 
  43.987000   502.000000     0.001992   485.544901     0.000000 
  43.995000   481.000000     0.002079   485.803487     0.000000 
  44.003000   505.000000     0.001980   486.074634     0.000000 
  44.011000   515.000000     0.001942   486.359162     0.000000 
  44.019000   464.000000     0.002155   486.657959     0.000000 
  44.027000   478.000000     0.002092   486.971988     0.000000 
  44.035000   459.000000     0.002179   487.302295     0.000000 
  44.043000   504.000000     0.001984   487.650015     0.000000 
  44.051000   506.000000     0.001976   488.016385     0.000000 
  44.059000   550.000000     0.001818   488.402754     0.000000 
  44.067000   487.000000     0.002053   488.810591     0.000000 
  44.075000   510.000000     0.001961   489.241506     0.000000 
  44.083000   535.000000     0.001869   489.697261     0.000000 
  44.091000   534.000000     0.001873   490.179787     0.000000 
  44.099000   531.000000     0.001883   490.691208     0.000000 
  44.107000   510.000000     0.001961   491.233859     0.000000 
  44.115000   466.000000     0.002146   491.810318     0.000000 
  44.123000   450.000000     0.002222   492.423430     0.000000 
  44.131000   476.000000     0.002101   493.076345     0.000000 
  44.139000   491.000000     0.002037   493.772559     0.000000 
  44.147000   489.000000     0.002045   494.515954     0.000000 
  44.155000   513.000000     0.001949   495.310858     0.000000 
  44.163000   514.000000     0.001946   496.162101     0.000000 
  44.171000   441.000000     0.002268   497.075090     0.000000 
  44.179000   468.000000     0.002137   498.055893     0.000000 
  44.187000   489.000000     0.002045   499.111333     0.000000 
  44.195000   509.000000     0.001965   500.249109     0.000000 
  44.203000   492.000000     0.002033   501.477929     0.000000 
  44.211000   449.000000     0.002227   502.807673     0.000000 
  44.219000   443.000000     0.002257   504.249587     0.000000 
  44.227000   528.000000     0.001894   505.816508     0.000000 
  44.235000   535.000000     0.001869   507.523147     0.000000 
  44.243000   488.000000     0.002049   509.386416     0.000000 
  44.251000   501.000000     0.001996   511.425835     0.000000 
  44.259000   506.000000     0.001976   513.664020     0.000000 
  44.267000   476.000000     0.002101   516.127294     0.000000 
  44.275000   477.000000     0.002096   518.846406     0.000000 
  44.283000   542.000000     0.001845   521.857487     0.000000 
  44.291000   561.000000     0.001783   525.203214     0.000000 
  44.299000   534.000000     0.001873   528.934356     0.000000 
  44.307000   531.000000     0.001883   533.111870     0.000000 
  44.315000   542.000000     0.001845   537.809903     0.000000 
  44.323000   557.000000     0.001795   543.120366     0.000000 
  44.331000   563.000000     0.001776   549.160213     0.000000 
  44.339000   533.000000     0.001876   556.083409     0.000000 
  44.347000   542.000000     0.001845   564.100648     0.000000 
  44.355000   623.000000     0.001605   573.511139     0.000000 
  44.363000   631.000000     0.001585   584.751725     0.000000 
  44.371000   671.000000     0.001490   598.468185     0.000000 
  44.379000   666.000000     0.001502   615.610490     0.000000 
  44.387000   720.000000     0.001389   637.546470     0.000000 
  44.395000   734.000000     0.001362   666.176148     0.000000 
  44.403000   764.000000     0.001309   704.013286     0.000000 
  44.411000   855.000000     0.001170   754.185949     0.000000 
  44.419000   956.000000     0.001046   820.301455     0.000000 
  44.427000  1057.000000     0.000946   906.129858     0.000000 
  44.435000  1252.000000     0.000799  1015.084724     0.000000 
  44.443000  1322.000000     0.000756  1149.505431     0.000000 
  44.451000  1463.000000     0.000684  1309.737156     0.000000 
  44.459000  1707.000000     0.000586  1492.922810     0.000000 
  44.467000  1926.000000     0.000519  1691.294773     0.000000 
  44.475000  2228.000000     0.000449  1889.875063     0.000000 
  44.483000  2705.000000     0.000370  2064.600590     0.000000 
  44.491000  3189.000000     0.000314  2184.357802     0.000000 
  44.499000  3510.000000     0.000285  2221.130334     0.000000 
  44.507000  3481.000000     0.000287  2165.069938     0.000000 
  44.515000  3137.000000     0.000319  2030.944637     0.000000 
  44.523000  2717.000000     0.000368  1848.684791     0.000000 
  44.531000  2075.000000     0.000482  1648.447805     0.000000 
  44.539000  1545.000000     0.000647  1452.328430     0.000000 
  44.547000  1140.000000     0.000877  1273.566908     0.000000 
  44.555000   964.000000     0.001037  1118.710759     0.000000 
  44.563000   887.000000     0.001127   989.813835     0.000000 
  44.571000   803.000000     0.001245   886.017892     0.000000 
  44.579000   650.000000     0.001538   804.685404     0.000000 
  44.587000   701.000000     0.001427   742.273424     0.000000 
  44.595000   606.000000     0.001650   695.009924     0.000000 
  44.603000   648.000000     0.001543   659.369631     0.000000 
  44.611000   711.000000     0.001406   632.349174     0.000000 
  44.619000   638.000000     0.001567   611.568891     0.000000 
  44.627000   613.000000     0.001631   595.250501     0.000000 
  44.635000   650.000000     0.001538   582.124971     0.000000 
  44.643000   602.000000     0.001661   571.316080     0.000000 
  44.651000   560.000000     0.001786   562.229668     0.000000 
  44.659000   548.000000     0.001825   554.463322     0.000000 
  44.667000   597.000000     0.001675   547.740101     0.000000 
  44.675000   578.000000     0.001730   541.863554     0.000000 
  44.683000   522.000000     0.001916   536.688918     0.000000 
  44.691000   529.000000     0.001890   532.105371     0.000000 
  44.699000   536.000000     0.001866   528.025275     0.000000 
  44.707000   524.000000     0.001908   524.377603     0.000000 
  44.715000   502.000000     0.001992   521.103778     0.000000 
  44.723000   501.000000     0.001996   518.154906     0.000000 
  44.731000   483.000000     0.002070   515.489818     0.000000 
  44.739000   499.000000     0.002004   513.073612     0.000000 
  44.747000   460.000000     0.002174   510.876554     0.000000 
  44.755000   431.000000     0.002320   508.873165     0.000000 
  44.763000   463.000000     0.002160   507.041534     0.000000 
  44.771000   465.000000     0.002151   505.362734     0.000000 
  44.779000   503.000000     0.001988   503.820351     0.000000 
  44.787000   453.000000     0.002208   502.400100     0.000000 
  44.795000   505.000000     0.001980   501.089501     0.000000 
  44.803000   524.000000     0.001908   499.877619     0.000000 
  44.811000   511.000000     0.001957   498.754836     0.000000 
  44.819000   506.000000     0.001976   497.712673     0.000000 
  44.827000   504.000000     0.001984   496.743628     0.000000 
  44.835000   491.000000     0.002037   495.841046     0.000000 
  44.843000   468.000000     0.002137   494.999008     0.000000 
  44.851000   477.000000     0.002096   494.212236     0.000000 
  44.859000   482.000000     0.002075   493.476014     0.000000 
  44.867000   510.000000     0.001961   492.786112     0.000000 
  44.875000   535.000000     0.001869   492.138734     0.000000 
  44.883000   529.000000     0.001890   491.530462     0.000000 
  44.891000   511.000000     0.001957   490.958214     0.000000 
  44.899000   465.000000     0.002151   490.419204     0.000000 
  44.907000   466.000000     0.002146   489.910909     0.000000 
  44.915000   460.000000     0.002174   489.431040     0.000000 
  44.923000   454.000000     0.002203   488.977517     0.000000 
  44.931000   475.000000     0.002105   488.548444     0.000000 
  44.939000   457.000000     0.002188   488.142096     0.000000 
  44.947000   526.000000     0.001901   487.756893     0.000000 
  44.955000   448.000000     0.002232   487.391391     0.000000 
  44.963000   540.000000     0.001852   487.044268     0.000000 
  44.971000   443.000000     0.002257   486.714309     0.000000 
  44.979000   469.000000     0.002132   486.400397     0.000000 
  44.987000   481.000000     0.002079   486.101506     0.000000 
  44.995000   439.000000     0.002278   485.816690     0.000000 
  45.003000   474.000000     0.002110   485.545075     0.000000 
  45.011000   474.000000     0.002110   485.285855     0.000000 
  45.019000   469.000000     0.002132   485.038282     0.000000 
  45.027000   457.000000     0.002188   484.801668     0.000000 
  45.035000   458.000000     0.002183   484.575370     0.000000 
  45.043000   493.000000     0.002028   484.358794     0.000000 
  45.051000   479.000000     0.002088   484.151387     0.000000 
  45.059000   472.000000     0.002119   483.952636     0.000000 
  45.067000   476.000000     0.002101   483.762063     0.000000 
  45.075000   489.000000     0.002045   483.579220     0.000000 
  45.083000   520.000000     0.001923   483.403692     0.000000 
  45.091000   523.000000     0.001912   483.235092     0.000000 
  45.099000   467.000000     0.002141   483.073054     0.000000 
  45.107000   467.000000     0.002141   482.917241     0.000000 
  45.115000   564.000000     0.001773   482.767334     0.000000 
  45.123000   496.000000     0.002016   482.623034     0.000000 
  45.131000   474.000000     0.002110   482.484063     0.000000 
  45.139000   477.000000     0.002096   482.350158     0.000000 
  45.147000   460.000000     0.002174   482.221072     0.000000 
  45.155000   459.000000     0.002179   482.096574     0.000000 
  45.163000   467.000000     0.002141   481.976447     0.000000 
  45.171000   464.000000     0.002155   481.860484     0.000000 
  45.179000   466.000000     0.002146   481.748493     0.000000 
  45.187000   470.000000     0.002128   481.640291     0.000000 
  45.195000   492.000000     0.002033   481.535707     0.000000 
  45.203000   430.000000     0.002326   481.434578     0.000000 
  45.211000   456.000000     0.002193   481.336751     0.000000 
  45.219000   502.000000     0.001992   481.242080     0.000000 
  45.227000   457.000000     0.002188   481.150430     0.000000 
  45.235000   451.000000     0.002217   481.061669     0.000000 
  45.243000   475.000000     0.002105   480.975676     0.000000 
  45.251000   445.000000     0.002247   480.892334     0.000000 
  45.259000   466.000000     0.002146   480.811532     0.000000 
  45.267000   473.000000     0.002114   480.733165     0.000000 
  45.275000   491.000000     0.002037   480.657136     0.000000 
  45.283000   487.000000     0.002053   480.583348     0.000000 
  45.291000   515.000000     0.001942   480.511712     0.000000 
  45.299000   534.000000     0.001873   480.442144     0.000000 
  45.307000   498.000000     0.002008   480.374561     0.000000 
  45.315000   492.000000     0.002033   480.308888     0.000000 
  45.323000   479.000000     0.002088   480.245050     0.000000 
  45.331000   468.000000     0.002137   480.182978     0.000000 
  45.339000   486.000000     0.002058   480.122604     0.000000 
  45.347000   513.000000     0.001949   480.063866     0.000000 
  45.355000   488.000000     0.002049   480.006702     0.000000 
  45.363000   501.000000     0.001996   479.951056     0.000000 
  45.371000   507.000000     0.001972   479.896871     0.000000 
  45.379000   488.000000     0.002049   479.844095     0.000000 
  45.387000   437.000000     0.002288   479.792677     0.000000 
  45.395000   421.000000     0.002375   479.742570     0.000000 
  45.403000   442.000000     0.002262   479.693727     0.000000 
  45.411000   466.000000     0.002146   479.646104     0.000000 
  45.419000   479.000000     0.002088   479.599660     0.000000 
  45.427000   480.000000     0.002083   479.554353     0.000000 
  45.435000   465.000000     0.002151   479.510146     0.000000 
  45.443000   478.000000     0.002092   479.467000     0.000000 
  45.451000   493.000000     0.002028   479.424881     0.000000 
  45.459000   469.000000     0.002132   479.383755     0.000000 
  45.467000   456.000000     0.002193   479.343588     0.000000 
  45.475000   469.000000     0.002132   479.304351     0.000000 
  45.483000   465.000000     0.002151   479.266012     0.000000 
  45.491000   467.000000     0.002141   479.228542     0.000000 
  45.499000   467.000000     0.002141   479.191915     0.000000 
  45.507000   539.000000     0.001855   479.156103     0.000000 
  45.515000   537.000000     0.001862   479.121081     0.000000 
  45.523000   504.000000     0.001984   479.086825     0.000000 
  45.531000   532.000000     0.001880   479.053310     0.000000 
  45.539000   469.000000     0.002132   479.020514     0.000000 
  45.547000   400.000000     0.002500   478.988415     0.000000 
  45.555000   455.000000     0.002198   478.956992     0.000000 
  45.563000   452.000000     0.002212   478.926224     0.000000 
  45.571000   458.000000     0.002183   478.896094     0.000000 
  45.579000   484.000000     0.002066   478.866580     0.000000 
  45.587000   493.000000     0.002028   478.837666     0.000000 
  45.595000   465.000000     0.002151   478.809333     0.000000 
  45.603000   480.000000     0.002083   478.781566     0.000000 
  45.611000   483.000000     0.002070   478.754347     0.000000 
  45.619000   461.000000     0.002169   478.727662     0.000000 
  45.627000   404.000000     0.002475   478.701495     0.000000 
  45.635000   409.000000     0.002445   478.675831     0.000000 
  45.643000   454.000000     0.002203   478.650656     0.000000 
  45.651000   416.000000     0.002404   478.625957     0.000000 
  45.659000   454.000000     0.002203   478.601721     0.000000 
  45.667000   501.000000     0.001996   478.577935     0.000000 
  45.675000   479.000000     0.002088   478.554587     0.000000 
  45.683000   467.000000     0.002141   478.531665     0.000000 
  45.691000   473.000000     0.002114   478.509157     0.000000 
  45.699000   442.000000     0.002262   478.487052     0.000000 
  45.707000   477.000000     0.002096   478.465341     0.000000 
  45.715000   463.000000     0.002160   478.444011     0.000000 
  45.723000   478.000000     0.002092   478.423054     0.000000 
  45.731000   449.000000     0.002227   478.402460     0.000000 
  45.739000   470.000000     0.002128   478.382219     0.000000 
  45.747000   507.000000     0.001972   478.362322     0.000000 
  45.755000   512.000000     0.001953   478.342761     0.000000 
  45.763000   457.000000     0.002188   478.323526     0.000000 
  45.771000   500.000000     0.002000   478.304611     0.000000 
  45.779000   494.000000     0.002024   478.286006     0.000000 
  45.787000   448.000000     0.002232   478.267703     0.000000 
  45.795000   470.000000     0.002128   478.249697     0.000000 
  45.803000   499.000000     0.002004   478.231978     0.000000 
  45.811000   486.000000     0.002058   478.214540     0.000000 
  45.819000   501.000000     0.001996   478.197377     0.000000 
  45.827000   492.000000     0.002033   478.180481     0.000000 
  45.835000   467.000000     0.002141   478.163846     0.000000 
  45.843000   448.000000     0.002232   476.958287     0.000000 
  45.851000   499.000000     0.002004   476.956163     0.000000 
  45.859000   467.000000     0.002141   476.954036     0.000000 
  45.867000   498.000000     0.002008   476.951906     0.000000 
  45.875000   480.000000     0.002083   476.949773     0.000000 
  45.883000   501.000000     0.001996   476.947637     0.000000 
  45.891000   502.000000     0.001992   476.945498     0.000000 
  45.899000   478.000000     0.002092   476.943356     0.000000 
  45.907000   482.000000     0.002075   476.941211     0.000000 
  45.915000   488.000000     0.002049   476.939062     0.000000 
  45.923000   452.000000     0.002212   476.936911     0.000000 
  45.931000   450.000000     0.002222   476.934757     0.000000 
  45.939000   467.000000     0.002141   476.932600     0.000000 
  45.947000   505.000000     0.001980   476.930439     0.000000 
  45.955000   478.000000     0.002092   476.928276     0.000000 
  45.963000   454.000000     0.002203   476.926110     0.000000 
  45.971000   474.000000     0.002110   476.923941     0.000000 
  45.979000   491.000000     0.002037   476.921768     0.000000 
  45.987000   460.000000     0.002174   476.919593     0.000000 
  45.995000   493.000000     0.002028   476.917414     0.000000 
  46.003000   470.000000     0.002128   476.915233     0.000000 
  46.011000   435.000000     0.002299   476.913049     0.000000 
  46.019000   465.000000     0.002151   476.910861     0.000000 
  46.027000   468.000000     0.002137   476.908671     0.000000 
  46.035000   480.000000     0.002083   476.906478     0.000000 
  46.043000   479.000000     0.002088   476.904281     0.000000 
  46.051000   487.000000     0.002053   476.902082     0.000000 
  46.059000   476.000000     0.002101   476.899879     0.000000 
  46.067000   455.000000     0.002198   476.897674     0.000000 
  46.075000   507.000000     0.001972   476.895466     0.000000 
  46.083000   488.000000     0.002049   476.893254     0.000000 
  46.091000   473.000000     0.002114   476.891040     0.000000 
  46.099000   491.000000     0.002037   476.888822     0.000000 
  46.107000   529.000000     0.001890   476.886602     0.000000 
  46.115000   503.000000     0.001988   478.463407     0.000000 
  46.123000   484.000000     0.002066   478.479019     0.000000 
  46.131000   473.000000     0.002114   478.494931     0.000000 
  46.139000   461.000000     0.002169   478.511151     0.000000 
  46.147000   498.000000     0.002008   478.527687     0.000000 
  46.155000   514.000000     0.001946   478.544544     0.000000 
  46.163000   481.000000     0.002079   478.561731     0.000000 
  46.171000   474.000000     0.002110   478.579256     0.000000 
  46.179000   499.000000     0.002004   478.597127     0.000000 
  46.187000   515.000000     0.001942   478.615351     0.000000 
  46.195000   485.000000     0.002062   478.633938     0.000000 
  46.203000   476.000000     0.002101   478.652896     0.000000 
  46.211000   488.000000     0.002049   478.672234     0.000000 
  46.219000   476.000000     0.002101   478.691961     0.000000 
  46.227000   474.000000     0.002110   478.712087     0.000000 
  46.235000   472.000000     0.002119   478.732622     0.000000 
  46.243000   444.000000     0.002252   478.753576     0.000000 
  46.251000   424.000000     0.002358   478.774960     0.000000 
  46.259000   497.000000     0.002012   478.796783     0.000000 
  46.267000   477.000000     0.002096   478.819058     0.000000 
  46.275000   484.000000     0.002066   478.841796     0.000000 
  46.283000   501.000000     0.001996   478.865009     0.000000 
  46.291000   517.000000     0.001934   478.888708     0.000000 
  46.299000   519.000000     0.001927   478.912907     0.000000 
  46.307000   494.000000     0.002024   478.937618     0.000000 
  46.315000   472.000000     0.002119   478.962856     0.000000 
  46.323000   442.000000     0.002262   478.988633     0.000000 
  46.331000   441.000000     0.002268   479.014965     0.000000 
  46.339000   434.000000     0.002304   479.041866     0.000000 
  46.347000   446.000000     0.002242   479.069351     0.000000 
  46.355000   467.000000     0.002141   479.097437     0.000000 
  46.363000   484.000000     0.002066   479.126139     0.000000 
  46.371000   489.000000     0.002045   479.155475     0.000000 
  46.379000   451.000000     0.002217   479.185463     0.000000 
  46.387000   462.000000     0.002165   479.216119     0.000000 
  46.395000   478.000000     0.002092   479.247464     0.000000 
  46.403000   461.000000     0.002169   479.279516     0.000000 
  46.411000   463.000000     0.002160   479.312296     0.000000 
  46.419000   483.000000     0.002070   479.345824     0.000000 
  46.427000   450.000000     0.002222   479.380123     0.000000 
  46.435000   480.000000     0.002083   479.415213     0.000000 
  46.443000   537.000000     0.001862   479.451120     0.000000 
  46.451000   498.000000     0.002008   479.487866     0.000000 
  46.459000   521.000000     0.001919   479.525477     0.000000 
  46.467000   477.000000     0.002096   479.563978     0.000000 
  46.475000   487.000000     0.002053   479.603396     0.000000 
  46.483000   486.000000     0.002058   479.643759     0.000000 
  46.491000   493.000000     0.002028   479.685096     0.000000 
  46.499000   484.000000     0.002066   479.727437     0.000000 
  46.507000   521.000000     0.001919   479.770813     0.000000 
  46.515000   509.000000     0.001965   479.815257     0.000000 
  46.523000   473.000000     0.002114   479.860801     0.000000 
  46.531000   463.000000     0.002160   479.907482     0.000000 
  46.539000   444.000000     0.002252   479.955334     0.000000 
  46.547000   472.000000     0.002119   480.004397     0.000000 
  46.555000   477.000000     0.002096   480.054710     0.000000 
  46.563000   423.000000     0.002364   480.106313     0.000000 
  46.571000   431.000000     0.002320   480.159249     0.000000 
  46.579000   458.000000     0.002183   480.213563     0.000000 
  46.587000   477.000000     0.002096   480.269300     0.000000 
  46.595000   489.000000     0.002045   480.326509     0.000000 
  46.603000   471.000000     0.002123   480.385241     0.000000 
  46.611000   459.000000     0.002179   480.445547     0.000000 
  46.619000   459.000000     0.002179   480.507483     0.000000 
  46.627000   470.000000     0.002128   480.571105     0.000000 
  46.635000   528.000000     0.001894   480.636474     0.000000 
  46.643000   444.000000     0.002252   480.703651     0.000000 
  46.651000   507.000000     0.001972   480.772701     0.000000 
  46.659000   519.000000     0.001927   480.843692     0.000000 
  46.667000   455.000000     0.002198   480.916696     0.000000 
  46.675000   478.000000     0.002092   480.991787     0.000000 
  46.683000   516.000000     0.001938   481.069043     0.000000 
  46.691000   528.000000     0.001894   481.148545     0.000000 
  46.699000   491.000000     0.002037   481.230379     0.000000 
  46.707000   479.000000     0.002088   481.314633     0.000000 
  46.715000   471.000000     0.002123   481.401402     0.000000 
  46.723000   459.000000     0.002179   481.490785     0.000000 
  46.731000   482.000000     0.002075   481.582883     0.000000 
  46.739000   479.000000     0.002088   481.677806     0.000000 
  46.747000   446.000000     0.002242   481.775667     0.000000 
  46.755000   430.000000     0.002326   481.876586     0.000000 
  46.763000   459.000000     0.002179   481.980689     0.000000 
  46.771000   463.000000     0.002160   482.088107     0.000000 
  46.779000   462.000000     0.002165   482.198979     0.000000 
  46.787000   461.000000     0.002169   482.313452     0.000000 
  46.795000   492.000000     0.002033   482.431680     0.000000 
  46.803000   457.000000     0.002188   482.553826     0.000000 
  46.811000   446.000000     0.002242   482.680061     0.000000 
  46.819000   485.000000     0.002062   482.810566     0.000000 
  46.827000   488.000000     0.002049   482.945531     0.000000 
  46.835000   502.000000     0.001992   483.085159     0.000000 
  46.843000   490.000000     0.002041   483.229663     0.000000 
  46.851000   513.000000     0.001949   483.379268     0.000000 
  46.859000   458.000000     0.002183   483.534212     0.000000 
  46.867000   475.000000     0.002105   483.694750     0.000000 
  46.875000   504.000000     0.001984   483.861147     0.000000 
  46.883000   495.000000     0.002020   484.033689     0.000000 
  46.891000   459.000000     0.002179   484.212677     0.000000 
  46.899000   475.000000     0.002105   484.398431     0.000000 
  46.907000   480.000000     0.002083   484.591291     0.000000 
  46.915000   476.000000     0.002101   484.791619     0.000000 
  46.923000   506.000000     0.001976   484.999800     0.000000 
  46.931000   523.000000     0.001912   485.216243     0.000000 
  46.939000   488.000000     0.002049   485.441387     0.000000 
  46.947000   458.000000     0.002183   485.675696     0.000000 
  46.955000   463.000000     0.002160   485.919671     0.000000 
  46.963000   477.000000     0.002096   486.173841     0.000000 
  46.971000   468.000000     0.002137   486.438777     0.000000 
  46.979000   495.000000     0.002020   486.715087     0.000000 
  46.987000   489.000000     0.002045   487.003425     0.000000 
  46.995000   484.000000     0.002066   487.304491     0.000000 
  47.003000   525.000000     0.001905   487.619037     0.000000 
  47.011000   558.000000     0.001792   487.947870     0.000000 
  47.019000   534.000000     0.001873   488.291859     0.000000 
  47.027000   495.000000     0.002020   488.651942     0.000000 
  47.035000   470.000000     0.002128   489.029127     0.000000 
  47.043000   485.000000     0.002062   489.424503     0.000000 
  47.051000   459.000000     0.002179   489.839248     0.000000 
  47.059000   485.000000     0.002062   490.274635     0.000000 
  47.067000   504.000000     0.001984   490.732044     0.000000 
  47.075000   545.000000     0.001835   491.212972     0.000000 
  47.083000   505.000000     0.001980   491.719043     0.000000 
  47.091000   460.000000     0.002174   492.252026     0.000000 
  47.099000   500.000000     0.002000   492.813844     0.000000 
  47.107000   523.000000     0.001912   493.406598     0.000000 
  47.115000   514.000000     0.001946   494.032580     0.000000 
  47.123000   501.000000     0.001996   494.694298     0.000000 
  47.131000   474.000000     0.002110   495.394502     0.000000 
  47.139000   475.000000     0.002105   496.136207     0.000000 
  47.147000   483.000000     0.002070   496.922730     0.000000 
  47.155000   459.000000     0.002179   497.757724     0.000000 
  47.163000   501.000000     0.001996   498.645217     0.000000 
  47.171000   554.000000     0.001805   499.589666     0.000000 
  47.179000   519.000000     0.001927   500.596005     0.000000 
  47.187000   486.000000     0.002058   501.669710     0.000000 
  47.195000   457.000000     0.002188   502.816876     0.000000 
  47.203000   509.000000     0.001965   504.044294     0.000000 
  47.211000   540.000000     0.001852   505.359553     0.000000 
  47.219000   529.000000     0.001890   506.771154     0.000000 
  47.227000   490.000000     0.002041   508.288643     0.000000 
  47.235000   544.000000     0.001838   509.922766     0.000000 
  47.243000   539.000000     0.001855   511.685657     0.000000 
  47.251000   504.000000     0.001984   513.591050     0.000000 
  47.259000   542.000000     0.001845   515.654543     0.000000 
  47.267000   549.000000     0.001821   517.893901     0.000000 
  47.275000   540.000000     0.001852   520.329425     0.000000 
  47.283000   533.000000     0.001876   522.984397     0.000000 
  47.291000   533.000000     0.001876   525.885611     0.000000 
  47.299000   541.000000     0.001848   529.064013     0.000000 
  47.307000   562.000000     0.001779   532.555509     0.000000 
  47.315000   584.000000     0.001712   536.401944     0.000000 
  47.323000   589.000000     0.001698   540.652353     0.000000 
  47.331000   603.000000     0.001658   545.364591     0.000000 
  47.339000   610.000000     0.001639   550.607545     0.000000 
  47.347000   603.000000     0.001658   556.464289     0.000000 
  47.355000   645.000000     0.001550   563.036804     0.000000 
  47.363000   635.000000     0.001575   570.453335     0.000000 
  47.371000   668.000000     0.001497   578.880095     0.000000 
  47.379000   722.000000     0.001385   588.539905     0.000000 
  47.387000   667.000000     0.001499   599.741284     0.000000 
  47.395000   717.000000     0.001395   612.922215     0.000000 
  47.403000   767.000000     0.001304   628.712587     0.000000 
  47.411000   718.000000     0.001393   648.017311     0.000000 
  47.419000   791.000000     0.001264   672.117248     0.000000 
  47.427000   877.000000     0.001140   702.776825     0.000000 
  47.435000   925.000000     0.001081   742.335944     0.000000 
  47.443000   949.000000     0.001054   793.751904     0.000000 
  47.451000  1026.000000     0.000975   860.548654     0.000000 
  47.459000  1147.000000     0.000872   946.631018     0.000000 
  47.467000  1291.000000     0.000775  1055.933843     0.000000 
  47.475000  1427.000000     0.000701  1191.896990     0.000000 
  47.483000  1561.000000     0.000641  1356.772543     0.000000 
  47.491000  1807.000000     0.000553  1550.753666     0.000000 
  47.499000  2135.000000     0.000468  1770.840936     0.000000 
  47.507000  2448.000000     0.000408  2009.261091     0.000000 
  47.515000  2729.000000     0.000366  2251.338212     0.000000 
  47.523000  3034.000000     0.000330  2473.503637     0.000000 
  47.531000  3359.000000     0.000298  2644.007697     0.000000 
  47.539000  3571.000000     0.000280  2730.220175     0.000000 
  47.547000  3779.000000     0.000265  2712.453777     0.000000 
  47.555000  3621.000000     0.000276  2594.955218     0.000000 
  47.563000  3374.000000     0.000296  2403.377124     0.000000 
  47.571000  2921.000000     0.000342  2171.366674     0.000000 
  47.579000  2434.000000     0.000411  1928.355101     0.000000 
  47.587000  2051.000000     0.000488  1702.520269     0.000000 
  47.595000  1806.000000     0.000554  1490.637633     0.000000 
  47.603000  1556.000000     0.000643  1306.303931     0.000000 
  47.611000  1293.000000     0.000773  1151.304119     0.000000 
  47.619000  1149.000000     0.000870  1024.647859     0.000000 
  47.627000  1003.000000     0.000997   923.599463     0.000000 
  47.635000   935.000000     0.001070   844.485086     0.000000 
  47.643000   909.000000     0.001100   783.330188     0.000000 
  47.651000   875.000000     0.001143   736.326729     0.000000 
  47.659000   817.000000     0.001224   700.126790     0.000000 
  47.667000   775.000000     0.001290   671.979071     0.000000 
  47.675000   761.000000     0.001314   649.743756     0.000000 
  47.683000   753.000000     0.001328   631.829451     0.000000 
  47.691000   720.000000     0.001389   617.092784     0.000000 
  47.699000   752.000000     0.001330   604.731145     0.000000 
  47.707000   740.000000     0.001351   594.186946     0.000000 
  47.715000   682.000000     0.001466   585.071398     0.000000 
  47.723000   602.000000     0.001661   577.108674     0.000000 
  47.731000   596.000000     0.001678   570.097524     0.000000 
  47.739000   629.000000     0.001590   563.886118     0.000000 
  47.747000   624.000000     0.001603   558.356067     0.000000 
  47.755000   645.000000     0.001550   553.412411     0.000000 
  47.763000   584.000000     0.001712   548.977295     0.000000 
  47.771000   547.000000     0.001828   544.985861     0.000000 
  47.779000   568.000000     0.001761   541.383467     0.000000 
  47.787000   592.000000     0.001689   538.123695     0.000000 
  47.795000   607.000000     0.001647   535.166867     0.000000 
  47.803000   539.000000     0.001855   532.478892     0.000000 
  47.811000   549.000000     0.001821   530.030355     0.000000 
  47.819000   478.000000     0.002092   527.795766     0.000000 
  47.827000   456.000000     0.002193   525.752961     0.000000 
  47.835000   476.000000     0.002101   523.882601     0.000000 
  47.843000   538.000000     0.001859   522.167755     0.000000 
  47.851000   582.000000     0.001718   520.593553     0.000000 
  47.859000   587.000000     0.001704   519.146901     0.000000 
  47.867000   554.000000     0.001805   517.816229     0.000000 
  47.875000   537.000000     0.001862   516.591296     0.000000 
  47.883000   532.000000     0.001880   515.463006     0.000000 
  47.891000   530.000000     0.001887   514.423265     0.000000 
  47.899000   542.000000     0.001845   513.464854     0.000000 
  47.907000   546.000000     0.001832   512.581319     0.000000 
  47.915000   493.000000     0.002028   511.766881     0.000000 
  47.923000   483.000000     0.002070   511.016353     0.000000 
  47.931000   549.000000     0.001821   510.325073     0.000000 
  47.939000   520.000000     0.001923   509.688842     0.000000 
  47.947000   573.000000     0.001745   509.103875     0.000000 
  47.955000   515.000000     0.001942   508.566753     0.000000 
  47.963000   567.000000     0.001764   508.074386     0.000000 
  47.971000   450.000000     0.002222   507.623976     0.000000 
  47.979000   501.000000     0.001996   507.212990     0.000000 
  47.987000   511.000000     0.001957   506.839127     0.000000 
  47.995000   542.000000     0.001845   506.500304     0.000000 
  48.003000   522.000000     0.001916   506.194628     0.000000 
  48.011000   508.000000     0.001969   505.920379     0.000000 
  48.019000   510.000000     0.001961   505.675998     0.000000 
  48.027000   520.000000     0.001923   505.460066     0.000000 
  48.035000   526.000000     0.001901   505.271297     0.000000 
  48.043000   563.000000     0.001776   505.108526     0.000000 
  48.051000   534.000000     0.001873   504.970696     0.000000 
  48.059000   468.000000     0.002137   504.856850     0.000000 
  48.067000   471.000000     0.002123   504.766126     0.000000 
  48.075000   480.000000     0.002083   504.697746     0.000000 
  48.083000   515.000000     0.001942   504.651013     0.000000 
  48.091000   475.000000     0.002105   504.625303     0.000000 
  48.099000   540.000000     0.001852   504.620061     0.000000 
  48.107000   552.000000     0.001812   504.634795     0.000000 
  48.115000   516.000000     0.001938   504.669076     0.000000 
  48.123000   458.000000     0.002183   504.722530     0.000000 
  48.131000   491.000000     0.002037   504.794837     0.000000 
  48.139000   485.000000     0.002062   504.885729     0.000000 
  48.147000   482.000000     0.002075   504.994986     0.000000 
  48.155000   494.000000     0.002024   505.122434     0.000000 
  48.163000   509.000000     0.001965   505.267945     0.000000 
  48.171000   536.000000     0.001866   505.431433     0.000000 
  48.179000   503.000000     0.001988   505.612854     0.000000 
  48.187000   516.000000     0.001938   505.812207     0.000000 
  48.195000   521.000000     0.001919   506.029527     0.000000 
  48.203000   528.000000     0.001894   506.264892     0.000000 
  48.211000   488.000000     0.002049   506.518417     0.000000 
  48.219000   477.000000     0.002096   506.790256     0.000000 
  48.227000   475.000000     0.002105   507.080602     0.000000 
  48.235000   466.000000     0.002146   507.389685     0.000000 
  48.243000   484.000000     0.002066   507.717775     0.000000 
  48.251000   512.000000     0.001953   508.065183     0.000000 
  48.259000   492.000000     0.002033   508.432256     0.000000 
  48.267000   528.000000     0.001894   508.819386     0.000000 
  48.275000   547.000000     0.001828   509.227004     0.000000 
  48.283000   540.000000     0.001852   509.655585     0.000000 
  48.291000   531.000000     0.001883   510.105647     0.000000 
  48.299000   493.000000     0.002028   510.577755     0.000000 
  48.307000   517.000000     0.001934   511.072522     0.000000 
  48.315000   500.000000     0.002000   511.590609     0.000000 
  48.323000   492.000000     0.002033   512.132729     0.000000 
  48.331000   518.000000     0.001931   512.699650     0.000000 
  48.339000   560.000000     0.001786   513.292196     0.000000 
  48.347000   505.000000     0.001980   513.911250     0.000000 
  48.355000   524.000000     0.001908   514.557761     0.000000 
  48.363000   555.000000     0.001802   515.232741     0.000000 
  48.371000   539.000000     0.001855   515.937273     0.000000 
  48.379000   482.000000     0.002075   516.672518     0.000000 
  48.387000   501.000000     0.001996   517.439711     0.000000 
  48.395000   509.000000     0.001965   518.240177     0.000000 
  48.403000   543.000000     0.001842   519.075326     0.000000 
  48.411000   531.000000     0.001883   519.946667     0.000000 
  48.419000   501.000000     0.001996   520.855812     0.000000 
  48.427000   549.000000     0.001821   521.804480     0.000000 
  48.435000   557.000000     0.001795   522.794512     0.000000 
  48.443000   541.000000     0.001848   523.827871     0.000000 
  48.451000   547.000000     0.001828   524.906660     0.000000 
  48.459000   549.000000     0.001821   526.033126     0.000000 
  48.467000   515.000000     0.001942   527.209674     0.000000 
  48.475000   525.000000     0.001905   528.438879     0.000000 
  48.483000   517.000000     0.001934   529.723501     0.000000 
  48.491000   493.000000     0.002028   531.066498     0.000000 
  48.499000   518.000000     0.001931   532.471043     0.000000 
  48.507000   539.000000     0.001855   533.940544     0.000000 
  48.515000   475.000000     0.002105   535.478661     0.000000 
  48.523000   497.000000     0.002012   537.089332     0.000000 
  48.531000   513.000000     0.001949   538.776792     0.000000 
  48.539000   511.000000     0.001957   540.545607     0.000000 
  48.547000   555.000000     0.001802   542.400697     0.000000 
  48.555000   555.000000     0.001802   544.347376     0.000000 
  48.563000   509.000000     0.001965   546.391383     0.000000 
  48.571000   516.000000     0.001938   548.538926     0.000000 
  48.579000   529.000000     0.001890   550.796730     0.000000 
  48.587000   515.000000     0.001942   553.172083     0.000000 
  48.595000   530.000000     0.001887   555.672898     0.000000 
  48.603000   570.000000     0.001754   558.307774     0.000000 
  48.611000   570.000000     0.001754   561.086070     0.000000 
  48.619000   586.000000     0.001706   564.017985     0.000000 
  48.627000   593.000000     0.001686   567.114648     0.000000 
  48.635000   585.000000     0.001709   570.388225     0.000000 
  48.643000   630.000000     0.001587   573.852030     0.000000 
  48.651000   623.000000     0.001605   577.520660     0.000000 
  48.659000   611.000000     0.001637   581.410144     0.000000 
  48.667000   582.000000     0.001718   585.538113     0.000000 
  48.675000   541.000000     0.001848   589.923994     0.000000 
  48.683000   602.000000     0.001661   594.589234     0.000000 
  48.691000   616.000000     0.001623   599.557555     0.000000 
  48.699000   643.000000     0.001555   604.855243     0.000000 
  48.707000   601.000000     0.001664   610.511489     0.000000 
  48.715000   667.000000     0.001499   616.558782     0.000000 
  48.723000   655.000000     0.001527   623.033353     0.000000 
  48.731000   646.000000     0.001548   629.975709     0.000000 
  48.739000   651.000000     0.001536   637.431241     0.000000 
  48.747000   652.000000     0.001534   645.450944     0.000000 
  48.755000   697.000000     0.001435   654.092256     0.000000 
  48.763000   682.000000     0.001466   663.420053     0.000000 
  48.771000   641.000000     0.001560   673.507817     0.000000 
  48.779000   734.000000     0.001362   684.439028     0.000000 
  48.787000   727.000000     0.001376   696.308820     0.000000 
  48.795000   727.000000     0.001376   709.225959     0.000000 
  48.803000   769.000000     0.001300   723.315275     0.000000 
  48.811000   783.000000     0.001277   738.720424     0.000000 
  48.819000   824.000000     0.001214   755.607561     0.000000 
  48.827000   837.000000     0.001195   774.169625     0.000000 
  48.835000   888.000000     0.001126   794.631873     0.000000 
  48.843000   874.000000     0.001144   817.259047     0.000000 
  48.851000   849.000000     0.001178   842.365064     0.000000 
  48.859000   915.000000     0.001093   870.326723     0.000000 
  48.867000   990.000000     0.001010   901.604031     0.000000 
  48.875000   981.000000     0.001019   936.771440     0.000000 
  48.883000  1052.000000     0.000951   976.566839     0.000000 
  48.891000  1176.000000     0.000850  1021.968460     0.000000 
  48.899000  1216.000000     0.000822  1074.313455     0.000000 
  48.907000  1367.000000     0.000732  1135.474699     0.000000 
  48.915000  1460.000000     0.000685  1208.111979     0.000000 
  48.923000  1531.000000     0.000653  1296.006966     0.000000 
  48.931000  1678.000000     0.000596  1404.474545     0.000000 
  48.939000  1931.000000     0.000518  1540.813605     0.000000 
  48.947000  2228.000000     0.000449  1714.719116     0.000000 
  48.955000  2443.000000     0.000409  1938.531002     0.000000 
  48.963000  2778.000000     0.000360  2227.157997     0.000000 
  48.971000  3182.000000     0.000314  2597.504498     0.000000 
  48.979000  3634.000000     0.000275  3067.740700     0.000000 
  48.987000  4236.000000     0.000236  3653.509178     0.000000 
  48.995000  4932.000000     0.000203  4368.080202     0.000000 
  49.003000  5775.000000     0.000173  5217.253039     0.000000 
  49.011000  6890.000000     0.000145  6195.630090     0.000000 
  49.019000  8175.000000     0.000122  7280.999685     0.000000 
  49.027000  9672.000000     0.000103  8426.476179     0.000000 
  49.035000  11502.000000     0.000087  9550.907589     0.000000 
  49.043000  13497.000000     0.000074  10533.106604     0.000000 
  49.051000  15533.000000     0.000064  11223.661585     0.000000 
  49.059000  16980.000000     0.000059  11487.797331     0.000000 
  49.067000  17544.000000     0.000057  11266.615637     0.000000 
  49.075000  16584.000000     0.000060  10609.752014     0.000000 
  49.083000  14662.000000     0.000068  9647.616872     0.000000 
  49.091000  11965.000000     0.000084  8530.531063     0.000000 
  49.099000  9400.000000     0.000106  7383.102274     0.000000 
  49.107000  7231.000000     0.000138  6289.996545     0.000000 
  49.115000  5606.000000     0.000178  5300.795100     0.000000 
  49.123000  4457.000000     0.000224  4439.578644     0.000000 
  49.131000  3526.000000     0.000284  3713.005242     0.000000 
  49.139000  3023.000000     0.000331  3116.100073     0.000000 
  49.147000  2580.000000     0.000388  2636.523011     0.000000 
  49.155000  2229.000000     0.000449  2257.931076     0.000000 
  49.163000  2008.000000     0.000498  1962.646840     0.000000 
  49.171000  1879.000000     0.000532  1733.635352     0.000000 
  49.179000  1643.000000     0.000609  1555.775748     0.000000 
  49.187000  1562.000000     0.000640  1416.486988     0.000000 
  49.195000  1524.000000     0.000656  1305.841989     0.000000 
  49.203000  1511.000000     0.000662  1216.341046     0.000000 
  49.211000  1516.000000     0.000660  1142.508735     0.000000 
  49.219000  1460.000000     0.000685  1080.442753     0.000000 
  49.227000  1434.000000     0.000697  1027.396981     0.000000 
  49.235000  1414.000000     0.000707   981.438976     0.000000 
  49.243000  1146.000000     0.000873   941.191446     0.000000 
  49.251000  1047.000000     0.000955   905.649345     0.000000 
  49.259000  1112.000000     0.000899   874.056739     0.000000 
  49.267000  1011.000000     0.000989   845.826763     0.000000 
  49.275000   963.000000     0.001038   820.490567     0.000000 
  49.283000   937.000000     0.001067   797.664803     0.000000 
  49.291000   917.000000     0.001091   777.030524     0.000000 
  49.299000   787.000000     0.001271   758.319001     0.000000 
  49.307000   816.000000     0.001225   741.301747     0.000000 
  49.315000   727.000000     0.001376   725.783160     0.000000 
  49.323000   697.000000     0.001435   711.594871     0.000000 
  49.331000   662.000000     0.001511   698.591371     0.000000 
  49.339000   611.000000     0.001637   686.646259     0.000000 
  49.347000   578.000000     0.001730   675.649440     0.000000 
  49.355000   575.000000     0.001739   665.504650     0.000000 
  49.363000   563.000000     0.001776   656.127444     0.000000 
  49.371000   525.000000     0.001905   647.443513     0.000000 
  49.379000   542.000000     0.001845   639.387271     0.000000 
  49.387000   489.000000     0.002045   631.900669     0.000000 
  49.395000   511.000000     0.001957   624.932184     0.000000 
  49.403000   507.000000     0.001972   618.435968     0.000000 
  49.411000   491.000000     0.002037   612.371119     0.000000 
  49.419000   486.000000     0.002058   606.701059     0.000000 
  49.427000   470.000000     0.002128   601.393006     0.000000 
  49.435000   473.000000     0.002114   596.417506     0.000000 
  49.443000   501.000000     0.001996   591.748048     0.000000 
  49.451000   491.000000     0.002037   587.360714     0.000000 
  49.459000   490.000000     0.002041   583.233888     0.000000 
  49.467000   493.000000     0.002028   579.347993     0.000000 
  49.475000   461.000000     0.002169   575.685272     0.000000 
  49.483000   466.000000     0.002146   572.229584     0.000000 
  49.491000   460.000000     0.002174   568.966238     0.000000 
  49.499000   456.000000     0.002193   565.881840     0.000000 
  49.507000   475.000000     0.002105   562.964155     0.000000 
  49.515000   491.000000     0.002037   560.201998     0.000000 
  49.523000   482.000000     0.002075   557.585123     0.000000 
  49.531000   455.000000     0.002198   555.104133     0.000000 
  49.539000   470.000000     0.002128   552.750401     0.000000 
  49.547000   470.000000     0.002128   550.515992     0.000000 
  49.555000   494.000000     0.002024   548.393604     0.000000 
  49.563000   493.000000     0.002028   546.376506     0.000000 
  49.571000   475.000000     0.002105   544.458488     0.000000 
  49.579000   472.000000     0.002119   542.633816     0.000000 
  49.587000   507.000000     0.001972   540.897189     0.000000 
  49.595000   482.000000     0.002075   539.243700     0.000000 
  49.603000   463.000000     0.002160   537.668808     0.000000 
  49.611000   444.000000     0.002252   536.168301     0.000000 
  49.619000   474.000000     0.002110   534.738276     0.000000 
  49.627000   482.000000     0.002075   533.375108     0.000000 
  49.635000   478.000000     0.002092   532.075431     0.000000 
  49.643000   479.000000     0.002088   530.836118     0.000000 
  49.651000   499.000000     0.002004   529.654263     0.000000 
  49.659000   494.000000     0.002024   528.527162     0.000000 
  49.667000   483.000000     0.002070   527.452303     0.000000 
  49.675000   485.000000     0.002062   526.427345     0.000000 
  49.683000   494.000000     0.002024   525.450116     0.000000 
  49.691000   484.000000     0.002066   524.518589     0.000000 
  49.699000   483.000000     0.002070   523.630885     0.000000 
  49.707000   516.000000     0.001938   522.785253     0.000000 
  49.715000   521.000000     0.001919   521.980068     0.000000 
  49.723000   499.000000     0.002004   521.213822     0.000000 
  49.731000   524.000000     0.001908   520.485116     0.000000 
  49.739000   522.000000     0.001916   519.792653     0.000000 
  49.747000   485.000000     0.002062   519.135236     0.000000 
  49.755000   491.000000     0.002037   518.511758     0.000000 
  49.763000   516.000000     0.001938   517.921202     0.000000 
  49.771000   481.000000     0.002079   517.362635     0.000000 
  49.779000   499.000000     0.002004   516.835201     0.000000 
  49.787000   535.000000     0.001869   516.338124     0.000000 
  49.795000   483.000000     0.002070   515.870702     0.000000 
  49.803000   469.000000     0.002132   515.432302     0.000000 
  49.811000   497.000000     0.002012   515.022362     0.000000 
  49.819000   495.000000     0.002020   514.640388     0.000000 
  49.827000   463.000000     0.002160   514.285951     0.000000 
  49.835000   514.000000     0.001946   513.958689     0.000000 
  49.843000   471.000000     0.002123   513.658301     0.000000 
  49.851000   479.000000     0.002088   513.384552     0.000000 
  49.859000   416.000000     0.002404   513.137272     0.000000 
  49.867000   465.000000     0.002151   512.916351     0.000000 
  49.875000   480.000000     0.002083   512.721747     0.000000 
  49.883000   512.000000     0.001953   512.553481     0.000000 
  49.891000   529.000000     0.001890   512.411641     0.000000 
  49.899000   513.000000     0.001949   512.296382     0.000000 
  49.907000   514.000000     0.001946   512.207933     0.000000 
  49.915000   503.000000     0.001988   512.146589     0.000000 
  49.923000   469.000000     0.002132   512.112727     0.000000 
  49.931000   498.000000     0.002008   512.106797     0.000000 
  49.939000   506.000000     0.001976   512.129335     0.000000 
  49.947000   491.000000     0.002037   512.180963     0.000000 
  49.955000   469.000000     0.002132   512.262395     0.000000 
  49.963000   466.000000     0.002146   512.374441     0.000000 
  49.971000   469.000000     0.002132   513.022888     0.000000 
  49.979000   485.000000     0.002062   513.204292     0.000000 
  49.987000   490.000000     0.002041   513.419484     0.000000 
  49.995000   468.000000     0.002137   513.669743     0.000000 
  50.003000   534.000000     0.001873   513.956487     0.000000 
  50.011000   503.000000     0.001988   514.281285     0.000000 
  50.019000   509.000000     0.001965   514.645872     0.000000 
  50.027000   539.000000     0.001855   515.052160     0.000000 
  50.035000   513.000000     0.001949   515.502261     0.000000 
  50.043000   562.000000     0.001779   515.998500     0.000000 
  50.051000   469.000000     0.002132   516.543439     0.000000 
  50.059000   460.000000     0.002174   517.139902     0.000000 
  50.067000   497.000000     0.002012   517.791000     0.000000 
  50.075000   520.000000     0.001923   518.500163     0.000000 
  50.083000   529.000000     0.001890   519.271176     0.000000 
  50.091000   535.000000     0.001869   520.108217     0.000000 
  50.099000   495.000000     0.002020   521.015903     0.000000 
  50.107000   476.000000     0.002101   521.999343     0.000000 
  50.115000   517.000000     0.001934   523.064196     0.000000 
  50.123000   524.000000     0.001908   524.216738     0.000000 
  50.131000   510.000000     0.001961   525.463942     0.000000 
  50.139000   524.000000     0.001908   526.813569     0.000000 
  50.147000   520.000000     0.001923   528.274265     0.000000 
  50.155000   515.000000     0.001942   529.855691     0.000000 
  50.163000   541.000000     0.001848   531.568655     0.000000 
  50.171000   505.000000     0.001980   533.425278     0.000000 
  50.179000   536.000000     0.001866   535.439184     0.000000 
  50.187000   570.000000     0.001754   537.625719     0.000000 
  50.195000   570.000000     0.001754   540.002221     0.000000 
  50.203000   549.000000     0.001821   542.588321     0.000000 
  50.211000   529.000000     0.001890   545.406314     0.000000 
  50.219000   597.000000     0.001675   548.481594     0.000000 
  50.227000   569.000000     0.001757   551.843181     0.000000 
  50.235000   602.000000     0.001661   555.524327     0.000000 
  50.243000   619.000000     0.001616   559.563302     0.000000 
  50.251000   598.000000     0.001672   564.004303     0.000000 
  50.259000   614.000000     0.001629   568.898614     0.000000 
  50.267000   632.000000     0.001582   574.306072     0.000000 
  50.275000   615.000000     0.001626   580.296992     0.000000 
  50.283000   628.000000     0.001592   586.954805     0.000000 
  50.291000   588.000000     0.001701   594.379823     0.000000 
  50.299000   596.000000     0.001678   602.694850     0.000000 
  50.307000   616.000000     0.001623   612.053791     0.000000 
  50.315000   611.000000     0.001637   622.655008     0.000000 
  50.323000   634.000000     0.001577   634.761942     0.000000 
  50.331000   631.000000     0.001585   648.734249     0.000000 
  50.339000   633.000000     0.001580   665.073162     0.000000 
  50.347000   682.000000     0.001466   684.484351     0.000000 
  50.355000   722.000000     0.001385   707.959633     0.000000 
  50.363000   753.000000     0.001328   736.874655     0.000000 
  50.371000   768.000000     0.001302   773.092770     0.000000 
  50.379000   820.000000     0.001220   819.056171     0.000000 
  50.387000   905.000000     0.001105   877.835568     0.000000 
  50.395000   952.000000     0.001050   953.102313     0.000000 
  50.403000  1101.000000     0.000908  1048.985753     0.000000 
  50.411000  1200.000000     0.000833  1169.786347     0.000000 
  50.419000  1392.000000     0.000718  1319.530939     0.000000 
  50.427000  1654.000000     0.000605  1501.372033     0.000000 
  50.435000  1921.000000     0.000521  1716.830856     0.000000 
  50.443000  2227.000000     0.000449  1964.842229     0.000000 
  50.451000  2636.000000     0.000379  2240.473489     0.000000 
  50.459000  2987.000000     0.000335  2533.132894     0.000000 
  50.467000  3780.000000     0.000265  2824.320335     0.000000 
  50.475000  4639.000000     0.000216  3085.967826     0.000000 
  50.483000  5571.000000     0.000180  3282.213507     0.000000 
  50.491000  6407.000000     0.000156  3378.006108     0.000000 
  50.499000  6708.000000     0.000149  3353.311854     0.000000 
  50.507000  6325.000000     0.000158  3213.472562     0.000000 
  50.515000  5339.000000     0.000187  2986.293257     0.000000 
  50.523000  4145.000000     0.000241  2708.667434     0.000000 
  50.531000  3154.000000     0.000317  2413.921889     0.000000 
  50.539000  2378.000000     0.000421  2118.583503     0.000000 
  50.547000  1864.000000     0.000536  1853.057288     0.000000 
  50.555000  1540.000000     0.000649  1617.693490     0.000000 
  50.563000  1301.000000     0.000769  1415.690530     0.000000 
  50.571000  1212.000000     0.000825  1246.944478     0.000000 
  50.579000  1048.000000     0.000954  1109.177882     0.000000 
  50.587000  1014.000000     0.000986   998.805617     0.000000 
  50.595000   949.000000     0.001054   911.627560     0.000000 
  50.603000   805.000000     0.001242   843.367499     0.000000 
  50.611000   728.000000     0.001374   790.054036     0.000000 
  50.619000   729.000000     0.001372   748.246939     0.000000 
  50.627000   787.000000     0.001271   715.129552     0.000000 
  50.635000   755.000000     0.001325   688.500962     0.000000 
  50.643000   734.000000     0.001362   666.705678     0.000000 
  50.651000   733.000000     0.001364   648.534471     0.000000 
  50.659000   703.000000     0.001422   633.121265     0.000000 
  50.667000   766.000000     0.001305   619.851143     0.000000 
  50.675000   751.000000     0.001332   608.286150     0.000000 
  50.683000   680.000000     0.001471   598.109765     0.000000 
  50.691000   623.000000     0.001605   589.087695     0.000000 
  50.699000   583.000000     0.001715   581.041388     0.000000 
  50.707000   577.000000     0.001733   573.830677     0.000000 
  50.715000   605.000000     0.001653   567.342587     0.000000 
  50.723000   603.000000     0.001658   561.484100     0.000000 
  50.731000   615.000000     0.001626   556.177395     0.000000 
  50.739000   591.000000     0.001692   551.356600     0.000000 
  50.747000   596.000000     0.001678   546.965480     0.000000 
  50.755000   593.000000     0.001686   542.955722     0.000000 
  50.763000   600.000000     0.001667   539.285597     0.000000 
  50.771000   593.000000     0.001686   535.918927     0.000000 
  50.779000   527.000000     0.001898   532.824201     0.000000 
  50.787000   459.000000     0.002179   529.973895     0.000000 
  50.795000   525.000000     0.001905   527.343884     0.000000 
  50.803000   487.000000     0.002053   524.912959     0.000000 
  50.811000   487.000000     0.002053   522.662419     0.000000 
  50.819000   537.000000     0.001862   520.575729     0.000000 
  50.827000   509.000000     0.001965   518.638231     0.000000 
  50.835000   541.000000     0.001848   516.836901     0.000000 
  50.843000   531.000000     0.001883   515.160136     0.000000 
  50.851000   517.000000     0.001934   513.597579     0.000000 
  50.859000   540.000000     0.001852   512.139964     0.000000 
  50.867000   518.000000     0.001931   510.778988     0.000000 
  50.875000   510.000000     0.001961   509.507195     0.000000 
  50.883000   508.000000     0.001969   508.317879     0.000000 
  50.891000   486.000000     0.002058   507.204999     0.000000 
  50.899000   470.000000     0.002128   506.163109     0.000000 
  50.907000   493.000000     0.002028   505.187290     0.000000 
  50.915000   531.000000     0.001883   504.273094     0.000000 
  50.923000   532.000000     0.001880   503.416500     0.000000 
  50.931000   486.000000     0.002058   502.613867     0.000000 
  50.939000   554.000000     0.001805   501.861901     0.000000 
  50.947000   534.000000     0.001873   501.157617     0.000000 
  50.955000   532.000000     0.001880   500.498316     0.000000 
  50.963000   486.000000     0.002058   499.881554     0.000000 
  50.971000   535.000000     0.001869   499.305128     0.000000 
  50.979000   534.000000     0.001873   498.767049     0.000000 
  50.987000   502.000000     0.001992   498.265528     0.000000 
  50.995000   510.000000     0.001961   497.798964     0.000000 
  51.003000   511.000000     0.001957   497.365928     0.000000 
  51.011000   511.000000     0.001957   496.965153     0.000000 
  51.019000   494.000000     0.002024   496.595527     0.000000 
  51.027000   526.000000     0.001901   496.256080     0.000000 
  51.035000   587.000000     0.001704   495.945985     0.000000 
  51.043000   555.000000     0.001802   495.664547     0.000000 
  51.051000   518.000000     0.001931   495.411201     0.000000 
  51.059000   509.000000     0.001965   495.185511     0.000000 
  51.067000   530.000000     0.001887   494.987167     0.000000 
  51.075000   501.000000     0.001996   494.815988     0.000000 
  51.083000   494.000000     0.002024   494.671919     0.000000 
  51.091000   508.000000     0.001969   494.555035     0.000000 
  51.099000   542.000000     0.001845   494.465548     0.000000 
  51.107000   493.000000     0.002028   494.403810     0.000000 
  51.115000   468.000000     0.002137   494.370318     0.000000 
  51.123000   500.000000     0.002000   494.365729     0.000000 
  51.131000   479.000000     0.002088   494.390865     0.000000 
  51.139000   550.000000     0.001818   494.446729     0.000000 
  51.147000   530.000000     0.001887   494.534520     0.000000 
  51.155000   502.000000     0.001992   494.655653     0.000000 
  51.163000   506.000000     0.001976   494.811780     0.000000 
  51.171000   498.000000     0.002008   495.004816     0.000000 
  51.179000   512.000000     0.001953   495.236970     0.000000 
  51.187000   495.000000     0.002020   495.510780     0.000000 
  51.195000   509.000000     0.001965   495.829159     0.000000 
  51.203000   535.000000     0.001869   496.195439     0.000000 
  51.211000   530.000000     0.001887   496.613436     0.000000 
  51.219000   480.000000     0.002083   497.087515     0.000000 
  51.227000   480.000000     0.002083   497.622676     0.000000 
  51.235000   481.000000     0.002079   498.224651     0.000000 
  51.243000   521.000000     0.001919   498.900021     0.000000 
  51.251000   531.000000     0.001883   499.656356     0.000000 
  51.259000   532.000000     0.001880   500.502389     0.000000 
  51.267000   559.000000     0.001789   501.448218     0.000000 
  51.275000   501.000000     0.001996   502.505569     0.000000 
  51.283000   504.000000     0.001984   503.688114     0.000000 
  51.291000   504.000000     0.001984   505.011895     0.000000 
  51.299000   510.000000     0.001961   506.495894     0.000000 
  51.307000   536.000000     0.001866   508.162834     0.000000 
  51.315000   538.000000     0.001859   510.040356     0.000000 
  51.323000   551.000000     0.001815   512.162798     0.000000 
  51.331000   491.000000     0.002037   514.573935     0.000000 
  51.339000   513.000000     0.001949   517.331184     0.000000 
  51.347000   497.000000     0.002012   520.511939     0.000000 
  51.355000   526.000000     0.001901   524.222857     0.000000 
  51.363000   523.000000     0.001912   528.612834     0.000000 
  51.371000   542.000000     0.001845   533.890162     0.000000 
  51.379000   499.000000     0.002004   540.343586     0.000000 
  51.387000   562.000000     0.001779   548.365684     0.000000 
  51.395000   552.000000     0.001812   558.475205     0.000000 
  51.403000   589.000000     0.001698   571.332826     0.000000 
  51.411000   638.000000     0.001567   587.742994     0.000000 
  51.419000   654.000000     0.001529   608.633592     0.000000 
  51.427000   659.000000     0.001517   635.006046     0.000000 
  51.435000   687.000000     0.001456   667.851238     0.000000 
  51.443000   694.000000     0.001441   708.030241     0.000000 
  51.451000   719.000000     0.001391   756.120638     0.000000 
  51.459000   782.000000     0.001279   812.224604     0.000000 
  51.467000   860.000000     0.001163   875.720352     0.000000 
  51.475000   943.000000     0.001060   944.918692     0.000000 
  51.483000  1072.000000     0.000933  1016.593682     0.000000 
  51.491000  1165.000000     0.000858  1085.470043     0.000000 
  51.499000  1322.000000     0.000756  1144.061575     0.000000 
  51.507000  1474.000000     0.000678  1183.630406     0.000000 
  51.515000  1620.000000     0.000617  1196.793583     0.000000 
  51.523000  1626.000000     0.000615  1180.789026     0.000000 
  51.531000  1519.000000     0.000658  1138.920903     0.000000 
  51.539000  1434.000000     0.000697  1078.844952     0.000000 
  51.547000  1095.000000     0.000913  1009.268332     0.000000 
  51.555000  1008.000000     0.000992   937.486713     0.000000 
  51.563000   810.000000     0.001235   868.565415     0.000000 
  51.571000   705.000000     0.001418   805.562749     0.000000 
  51.579000   701.000000     0.001427   750.049154     0.000000 
  51.587000   650.000000     0.001538   702.565253     0.000000 
  51.595000   637.000000     0.001570   662.954463     0.000000 
  51.603000   613.000000     0.001631   630.604865     0.000000 
  51.611000   623.000000     0.001605   604.637014     0.000000 
  51.619000   624.000000     0.001603   584.054358     0.000000 
  51.627000   624.000000     0.001603   567.859225     0.000000 
  51.635000   597.000000     0.001675   555.133600     0.000000 
  51.643000   556.000000     0.001799   545.085978     0.000000 
  51.651000   524.000000     0.001908   537.069264     0.000000 
  51.659000   562.000000     0.001779   530.577285     0.000000 
  51.667000   584.000000     0.001712   525.228106     0.000000 
  51.675000   505.000000     0.001980   520.741401     0.000000 
  51.683000   614.000000     0.001629   516.915176     0.000000 
  51.691000   609.000000     0.001642   513.605033     0.000000 
  51.699000   523.000000     0.001912   510.707412     0.000000 
  51.707000   573.000000     0.001745   508.146989     0.000000 
  51.715000   556.000000     0.001799   505.867701     0.000000 
  51.723000   491.000000     0.002037   503.826647     0.000000 
  51.731000   516.000000     0.001938   501.990042     0.000000 
  51.739000   484.000000     0.002066   500.330589     0.000000 
  51.747000   503.000000     0.001988   498.825773     0.000000 
  51.755000   510.000000     0.001961   497.456720     0.000000 
  51.763000   473.000000     0.002114   496.207424     0.000000 
  51.771000   471.000000     0.002123   495.064197     0.000000 
  51.779000   563.000000     0.001776   494.015254     0.000000 
  51.787000   571.000000     0.001751   493.050397     0.000000 
  51.795000   486.000000     0.002058   492.160764     0.000000 
  51.803000   450.000000     0.002222   491.338625     0.000000 
  51.811000   526.000000     0.001901   490.577210     0.000000 
  51.819000   532.000000     0.001880   489.870574     0.000000 
  51.827000   515.000000     0.001942   489.213479     0.000000 
  51.835000   518.000000     0.001931   488.601297     0.000000 
  51.843000   466.000000     0.002146   488.029926     0.000000 
  51.851000   470.000000     0.002128   487.495721     0.000000 
  51.859000   528.000000     0.001894   486.995436     0.000000 
  51.867000   507.000000     0.001972   486.526169     0.000000 
  51.875000   545.000000     0.001835   486.085325     0.000000 
  51.883000   523.000000     0.001912   485.670575     0.000000 
  51.891000   488.000000     0.002049   485.279821     0.000000 
  51.899000   501.000000     0.001996   484.911176     0.000000 
  51.907000   555.000000     0.001802   484.562935     0.000000 
  51.915000   535.000000     0.001869   484.233552     0.000000 
  51.923000   476.000000     0.002101   483.921630     0.000000 
  51.931000   495.000000     0.002020   483.625897     0.000000 
  51.939000   486.000000     0.002058   483.345195     0.000000 
  51.947000   483.000000     0.002070   483.078471     0.000000 
  51.955000   470.000000     0.002128   482.824760     0.000000 
  51.963000   510.000000     0.001961   482.583183     0.000000 
  51.971000   505.000000     0.001980   482.352933     0.000000 
  51.979000   493.000000     0.002028   482.133270     0.000000 
  51.987000   499.000000     0.002004   481.923513     0.000000 
  51.995000   483.000000     0.002070   481.723037     0.000000 
  52.003000   485.000000     0.002062   481.531266     0.000000 
  52.011000   478.000000     0.002092   481.347668     0.000000 
  52.019000   483.000000     0.002070   479.166012     0.000000 
  52.027000   506.000000     0.001976   479.018171     0.000000 
  52.035000   520.000000     0.001923   478.876813     0.000000 
  52.043000   512.000000     0.001953   478.741555     0.000000 
  52.051000   462.000000     0.002165   478.612041     0.000000 
  52.059000   527.000000     0.001898   478.487942     0.000000 
  52.067000   527.000000     0.001898   478.368950     0.000000 
  52.075000   512.000000     0.001953   478.254780     0.000000 
  52.083000   501.000000     0.001996   478.145166     0.000000 
  52.091000   538.000000     0.001859   478.039860     0.000000 
  52.099000   522.000000     0.001916   477.938632     0.000000 
  52.107000   553.000000     0.001808   477.841264     0.000000 
  52.115000   514.000000     0.001946   477.747555     0.000000 
  52.123000   464.000000     0.002155   477.657316     0.000000 
  52.131000   481.000000     0.002079   477.570370     0.000000 
  52.139000   498.000000     0.002008   477.486552     0.000000 
  52.147000   502.000000     0.001992   477.405705     0.000000 
  52.155000   510.000000     0.001961   477.327684     0.000000 
  52.163000   492.000000     0.002033   477.252351     0.000000 
  52.171000   502.000000     0.001992   477.179578     0.000000 
  52.179000   478.000000     0.002092   477.109243     0.000000 
  52.187000   466.000000     0.002146   477.041231     0.000000 
  52.195000   459.000000     0.002179   476.975436     0.000000 
  52.203000   454.000000     0.002203   476.911756     0.000000 
  52.211000   462.000000     0.002165   476.850094     0.000000 
  52.219000   472.000000     0.002119   476.790360     0.000000 
  52.227000   467.000000     0.002141   476.732470     0.000000 
  52.235000   447.000000     0.002237   476.676341     0.000000 
  52.243000   450.000000     0.002222   476.621899     0.000000 
  52.251000   455.000000     0.002198   476.569069     0.000000 
  52.259000   465.000000     0.002151   476.517785     0.000000 
  52.267000   504.000000     0.001984   476.467980     0.000000 
  52.275000   505.000000     0.001980   476.419593     0.000000 
  52.283000   498.000000     0.002008   476.372567     0.000000 
  52.291000   482.000000     0.002075   476.326845     0.000000 
  52.299000   485.000000     0.002062   476.282375     0.000000 
  52.307000   473.000000     0.002114   476.239107     0.000000 
  52.315000   487.000000     0.002053   476.196993     0.000000 
  52.323000   454.000000     0.002203   476.155988     0.000000 
  52.331000   494.000000     0.002024   476.116049     0.000000 
  52.339000   495.000000     0.002020   476.077136     0.000000 
  52.347000   461.000000     0.002169   476.039208     0.000000 
  52.355000   525.000000     0.001905   476.002229     0.000000 
  52.363000   518.000000     0.001931   475.966163     0.000000 
  52.371000   522.000000     0.001916   475.930977     0.000000 
  52.379000   537.000000     0.001862   475.896637     0.000000 
  52.387000   512.000000     0.001953   475.863115     0.000000 
  52.395000   516.000000     0.001938   475.830379     0.000000 
  52.403000   512.000000     0.001953   475.798401     0.000000 
  52.411000   477.000000     0.002096   475.767156     0.000000 
  52.419000   455.000000     0.002198   475.736617     0.000000 
  52.427000   454.000000     0.002203   475.706759     0.000000 
  52.435000   483.000000     0.002070   475.677560     0.000000 
  52.443000   499.000000     0.002004   475.648996     0.000000 
  52.451000   479.000000     0.002088   475.621045     0.000000 
  52.459000   510.000000     0.001961   475.593688     0.000000 
  52.467000   466.000000     0.002146   475.566905     0.000000 
  52.475000   470.000000     0.002128   475.540675     0.000000 
  52.483000   496.000000     0.002016   475.514982     0.000000 
  52.491000   502.000000     0.001992   475.489808     0.000000 
  52.499000   511.000000     0.001957   475.465135     0.000000 
  52.507000   510.000000     0.001961   475.440948     0.000000 
  52.515000   491.000000     0.002037   475.417231     0.000000 
  52.523000   488.000000     0.002049   475.393970     0.000000 
  52.531000   475.000000     0.002105   475.371150     0.000000 
  52.539000   474.000000     0.002110   475.348758     0.000000 
  52.547000   512.000000     0.001953   475.326779     0.000000 
  52.555000   527.000000     0.001898   475.305202     0.000000 
  52.563000   526.000000     0.001901   475.284015     0.000000 
  52.571000   517.000000     0.001934   475.263204     0.000000 
  52.579000   492.000000     0.002033   475.242760     0.000000 
  52.587000   511.000000     0.001957   475.222671     0.000000 
  52.595000   512.000000     0.001953   475.202927     0.000000 
  52.603000   456.000000     0.002193   475.183518     0.000000 
  52.611000   496.000000     0.002016   475.164433     0.000000 
  52.619000   493.000000     0.002028   475.145664     0.000000 
  52.627000   486.000000     0.002058   475.127202     0.000000 
  52.635000   477.000000     0.002096   475.109037     0.000000 
  52.643000   469.000000     0.002132   475.091161     0.000000 
  52.651000   481.000000     0.002079   475.354901     0.000000 
  52.659000   477.000000     0.002096   475.340394     0.000000 
  52.667000   501.000000     0.001996   475.326194     0.000000 
  52.675000   516.000000     0.001938   475.312296     0.000000 
  52.683000   460.000000     0.002174   475.298693     0.000000 
  52.691000   467.000000     0.002141   475.285379     0.000000 
  52.699000   469.000000     0.002132   475.272349     0.000000 
  52.707000   471.000000     0.002123   475.259598     0.000000 
  52.715000   487.000000     0.002053   475.247119     0.000000 
  52.723000   457.000000     0.002188   475.234908     0.000000 
  52.731000   465.000000     0.002151   475.222961     0.000000 
  52.739000   474.000000     0.002110   475.211273     0.000000 
  52.747000   491.000000     0.002037   475.199838     0.000000 
  52.755000   486.000000     0.002058   475.188654     0.000000 
  52.763000   467.000000     0.002141   475.177717     0.000000 
  52.771000   467.000000     0.002141   475.167022     0.000000 
  52.779000   492.000000     0.002033   475.156566     0.000000 
  52.787000   488.000000     0.002049   475.146345     0.000000 
  52.795000   447.000000     0.002237   475.136357     0.000000 
  52.803000   471.000000     0.002123   475.126598     0.000000 
  52.811000   469.000000     0.002132   475.117066     0.000000 
  52.819000   475.000000     0.002105   475.107758     0.000000 
  52.827000   484.000000     0.002066   475.098671     0.000000 
  52.835000   520.000000     0.001923   475.089802     0.000000 
  52.843000   533.000000     0.001876   475.081151     0.000000 
  52.851000   511.000000     0.001957   475.072714     0.000000 
  52.859000   508.000000     0.001969   475.064489     0.000000 
  52.867000   536.000000     0.001866   475.056476     0.000000 
  52.875000   483.000000     0.002070   475.048672     0.000000 
  52.883000   518.000000     0.001931   475.041076     0.000000 
  52.891000   499.000000     0.002004   475.033686     0.000000 
  52.899000   459.000000     0.002179   475.026501     0.000000 
  52.907000   455.000000     0.002198   475.019521     0.000000 
  52.915000   459.000000     0.002179   475.012743     0.000000 
  52.923000   478.000000     0.002092   475.006169     0.000000 
  52.931000   518.000000     0.001931   474.999796     0.000000 
  52.939000   498.000000     0.002008   474.993624     0.000000 
  52.947000   469.000000     0.002132   474.987654     0.000000 
  52.955000   496.000000     0.002016   474.981884     0.000000 
  52.963000   495.000000     0.002020   474.976315     0.000000 
  52.971000   494.000000     0.002024   474.970946     0.000000 
  52.979000   500.000000     0.002000   474.965779     0.000000 
  52.987000   475.000000     0.002105   474.960812     0.000000 
  52.995000   478.000000     0.002092   474.956048     0.000000 
  53.003000   462.000000     0.002165   474.951485     0.000000 
  53.011000   477.000000     0.002096   474.947125     0.000000 
  53.019000   456.000000     0.002193   474.942969     0.000000 
  53.027000   487.000000     0.002053   474.939019     0.000000 
  53.035000   499.000000     0.002004   474.935274     0.000000 
  53.043000   439.000000     0.002278   474.931736     0.000000 
  53.051000   491.000000     0.002037   474.928407     0.000000 
  53.059000   503.000000     0.001988   474.925289     0.000000 
  53.067000   482.000000     0.002075   474.423186     0.000000 
  53.075000   533.000000     0.001876   474.425594     0.000000 
  53.083000   497.000000     0.002012   474.428141     0.000000 
  53.091000   460.000000     0.002174   474.430830     0.000000 
  53.099000   484.000000     0.002066   474.433665     0.000000 
  53.107000   463.000000     0.002160   474.436652     0.000000 
  53.115000   435.000000     0.002299   474.439793     0.000000 
  53.123000   473.000000     0.002114   474.443093     0.000000 
  53.131000   509.000000     0.001965   474.446557     0.000000 
  53.139000   482.000000     0.002075   474.450189     0.000000 
  53.147000   457.000000     0.002188   474.453995     0.000000 
  53.155000   455.000000     0.002198   474.457980     0.000000 
  53.163000   459.000000     0.002179   474.462148     0.000000 
  53.171000   429.000000     0.002331   474.466506     0.000000 
  53.179000   450.000000     0.002222   474.471058     0.000000 
  53.187000   510.000000     0.001961   474.475811     0.000000 
  53.195000   475.000000     0.002105   474.480771     0.000000 
  53.203000   447.000000     0.002237   474.485944     0.000000 
  53.211000   506.000000     0.001976   474.491337     0.000000 
  53.219000   491.000000     0.002037   474.496957     0.000000 
  53.227000   469.000000     0.002132   474.502810     0.000000 
  53.235000   504.000000     0.001984   474.508904     0.000000 
  53.243000   461.000000     0.002169   474.515246     0.000000 
  53.251000   481.000000     0.002079   474.521845     0.000000 
  53.259000   514.000000     0.001946   474.528709     0.000000 
  53.267000   491.000000     0.002037   474.535847     0.000000 
  53.275000   482.000000     0.002075   474.543267     0.000000 
  53.283000   469.000000     0.002132   474.550978     0.000000 
  53.291000   486.000000     0.002058   474.558991     0.000000 
  53.299000   503.000000     0.001988   474.567315     0.000000 
  53.307000   514.000000     0.001946   474.575960     0.000000 
  53.315000   518.000000     0.001931   474.584939     0.000000 
  53.323000   500.000000     0.002000   474.594262     0.000000 
  53.331000   484.000000     0.002066   474.603942     0.000000 
  53.339000   490.000000     0.002041   474.613989     0.000000 
  53.347000   502.000000     0.001992   474.624419     0.000000 
  53.355000   507.000000     0.001972   474.635243     0.000000 
  53.363000   499.000000     0.002004   474.646477     0.000000 
  53.371000   473.000000     0.002114   474.658135     0.000000 
  53.379000   472.000000     0.002119   474.670232     0.000000 
  53.387000   486.000000     0.002058   474.682785     0.000000 
  53.395000   500.000000     0.002000   474.695810     0.000000 
  53.403000   445.000000     0.002247   474.709325     0.000000 
  53.411000   482.000000     0.002075   474.723349     0.000000 
  53.419000   548.000000     0.001825   474.737901     0.000000 
  53.427000   461.000000     0.002169   474.753001     0.000000 
  53.435000   418.000000     0.002392   474.768671     0.000000 
  53.443000   465.000000     0.002151   474.784933     0.000000 
  53.451000   481.000000     0.002079   474.801810     0.000000 
  53.459000   463.000000     0.002160   474.819326     0.000000 
  53.467000   506.000000     0.001976   474.837509     0.000000 
  53.475000   495.000000     0.002020   474.856384     0.000000 
  53.483000   465.000000     0.002151   474.875981     0.000000 
  53.491000   454.000000     0.002203   474.896329     0.000000 
  53.499000   471.000000     0.002123   474.917460     0.000000 
  53.507000   460.000000     0.002174   474.939406     0.000000 
  53.515000   449.000000     0.002227   474.962204     0.000000 
  53.523000   478.000000     0.002092   474.985890     0.000000 
  53.531000   509.000000     0.001965   475.010502     0.000000 
  53.539000   504.000000     0.001984   475.036083     0.000000 
  53.547000   494.000000     0.002024   475.062674     0.000000 
  53.555000   503.000000     0.001988   475.090322     0.000000 
  53.563000   478.000000     0.002092   475.119076     0.000000 
  53.571000   487.000000     0.002053   475.148985     0.000000 
  53.579000   523.000000     0.001912   475.180105     0.000000 
  53.587000   473.000000     0.002114   475.212493     0.000000 
  53.595000   482.000000     0.002075   475.246210     0.000000 
  53.603000   470.000000     0.002128   475.281319     0.000000 
  53.611000   429.000000     0.002331   475.317889     0.000000 
  53.619000   525.000000     0.001905   475.355993     0.000000 
  53.627000   503.000000     0.001988   475.395708     0.000000 
  53.635000   497.000000     0.002012   475.437115     0.000000 
  53.643000   487.000000     0.002053   475.480303     0.000000 
  53.651000   493.000000     0.002028   475.525363     0.000000 
  53.659000   496.000000     0.002016   475.572395     0.000000 
  53.667000   488.000000     0.002049   475.621505     0.000000 
  53.675000   482.000000     0.002075   475.672805     0.000000 
  53.683000   459.000000     0.002179   475.726416     0.000000 
  53.691000   452.000000     0.002212   475.782466     0.000000 
  53.699000   448.000000     0.002232   475.841094     0.000000 
  53.707000   472.000000     0.002119   475.902447     0.000000 
  53.715000   485.000000     0.002062   475.966683     0.000000 
  53.723000   483.000000     0.002070   476.033973     0.000000 
  53.731000   538.000000     0.001859   476.104500     0.000000 
  53.739000   508.000000     0.001969   476.178460     0.000000 
  53.747000   517.000000     0.001934   476.256065     0.000000 
  53.755000   494.000000     0.002024   476.337542     0.000000 
  53.763000   456.000000     0.002193   476.423138     0.000000 
  53.771000   501.000000     0.001996   476.513120     0.000000 
  53.779000   484.000000     0.002066   476.607774     0.000000 
  53.787000   461.000000     0.002169   476.707412     0.000000 
  53.795000   489.000000     0.002045   476.812372     0.000000 
  53.803000   492.000000     0.002033   476.923021     0.000000 
  53.811000   539.000000     0.001855   477.039757     0.000000 
  53.819000   509.000000     0.001965   477.163015     0.000000 
  53.827000   486.000000     0.002058   477.293268     0.000000 
  53.835000   486.000000     0.002058   477.431033     0.000000 
  53.843000   526.000000     0.001901   477.576874     0.000000 
  53.851000   519.000000     0.001927   477.731410     0.000000 
  53.859000   474.000000     0.002110   477.895320     0.000000 
  53.867000   500.000000     0.002000   478.069351     0.000000 
  53.875000   472.000000     0.002119   478.254322     0.000000 
  53.883000   478.000000     0.002092   478.451140     0.000000 
  53.891000   491.000000     0.002037   478.660805     0.000000 
  53.899000   510.000000     0.001961   478.884423     0.000000 
  53.907000   508.000000     0.001969   479.123224     0.000000 
  53.915000   448.000000     0.002232   479.378571     0.000000 
  53.923000   493.000000     0.002028   479.651985     0.000000 
  53.931000   525.000000     0.001905   479.945164     0.000000 
  53.939000   524.000000     0.001908   480.260007     0.000000 
  53.947000   484.000000     0.002066   480.598643     0.000000 
  53.955000   447.000000     0.002237   480.963470     0.000000 
  53.963000   492.000000     0.002033   481.357189     0.000000 
  53.971000   501.000000     0.001996   481.782853     0.000000 
  53.979000   514.000000     0.001946   482.243927     0.000000 
  53.987000   471.000000     0.002123   482.744348     0.000000 
  53.995000   466.000000     0.002146   483.288613     0.000000 
  54.003000   473.000000     0.002114   483.881868     0.000000 
  54.011000   490.000000     0.002041   484.530032     0.000000 
  54.019000   507.000000     0.001972   485.239943     0.000000 
  54.027000   510.000000     0.001961   486.019548     0.000000 
  54.035000   488.000000     0.002049   486.878154     0.000000 
  54.043000   482.000000     0.002075   487.826778     0.000000 
  54.051000   492.000000     0.002033   488.878640     0.000000 
  54.059000   517.000000     0.001934   490.049899     0.000000 
  54.067000   502.000000     0.001992   491.360752     0.000000 
  54.075000   505.000000     0.001980   492.837092     0.000000 
  54.083000   486.000000     0.002058   494.512975     0.000000 
  54.091000   497.000000     0.002012   496.434212     0.000000 
  54.099000   550.000000     0.001818   498.663396     0.000000 
  54.107000   509.000000     0.001965   501.286640     0.000000 
  54.115000   519.000000     0.001927   504.422047     0.000000 
  54.123000   553.000000     0.001808   508.229573     0.000000 
  54.131000   587.000000     0.001704   512.921321     0.000000 
  54.139000   552.000000     0.001812   518.770525     0.000000 
  54.147000   589.000000     0.001698   526.116700     0.000000 
  54.155000   560.000000     0.001786   535.363802     0.000000 
  54.163000   607.000000     0.001647   546.968131     0.000000 
  54.171000   539.000000     0.001855   561.413254     0.000000 
  54.179000   656.000000     0.001524   579.170399     0.000000 
  54.187000   692.000000     0.001445   600.644060     0.000000 
  54.195000   709.000000     0.001410   626.102714     0.000000 
  54.203000   705.000000     0.001418   655.592009     0.000000 
  54.211000   764.000000     0.001309   688.821134     0.000000 
  54.219000   806.000000     0.001241   725.005129     0.000000 
  54.227000   895.000000     0.001117   762.649081     0.000000 
  54.235000   975.000000     0.001026   799.305676     0.000000 
  54.243000  1061.000000     0.000943   831.461545     0.000000 
  54.251000  1125.000000     0.000889   854.871678     0.000000 
  54.259000  1133.000000     0.000883   865.621773     0.000000 
  54.267000  1205.000000     0.000830   861.651183     0.000000 
  54.275000  1192.000000     0.000839   843.739849     0.000000 
  54.283000  1062.000000     0.000942   815.120701     0.000000 
  54.291000   983.000000     0.001017   780.060644     0.000000 
  54.299000   907.000000     0.001103   742.498134     0.000000 
  54.307000   809.000000     0.001236   705.383143     0.000000 
  54.315000   755.000000     0.001325   670.627810     0.000000 
  54.323000   655.000000     0.001527   639.318733     0.000000 
  54.331000   636.000000     0.001572   611.954621     0.000000 
  54.339000   581.000000     0.001721   588.630731     0.000000 
  54.347000   572.000000     0.001748   569.170613     0.000000 
  54.355000   607.000000     0.001647   553.223772     0.000000 
  54.363000   625.000000     0.001600   540.342509     0.000000 
  54.371000   559.000000     0.001789   530.043184     0.000000 
  54.379000   514.000000     0.001946   521.852761     0.000000 
  54.387000   527.000000     0.001898   515.340571     0.000000 
  54.395000   564.000000     0.001773   510.136195     0.000000 
  54.403000   595.000000     0.001681   505.935710     0.000000 
  54.411000   560.000000     0.001786   502.499389     0.000000 
  54.419000   582.000000     0.001718   499.644154     0.000000 
  54.427000   561.000000     0.001783   497.233623     0.000000 
  54.435000   541.000000     0.001848   495.167884     0.000000 
  54.443000   513.000000     0.001949   493.374298     0.000000 
  54.451000   494.000000     0.002024   491.799934     0.000000 
  54.459000   491.000000     0.002037   490.405770     0.000000 
  54.467000   504.000000     0.001984   489.162465     0.000000 
  54.475000   503.000000     0.001988   488.047410     0.000000 
  54.483000   497.000000     0.002012   487.042723     0.000000 
  54.491000   513.000000     0.001949   486.133922     0.000000 
  54.499000   483.000000     0.002070   485.309033     0.000000 
  54.507000   458.000000     0.002183   484.558000     0.000000 
  54.515000   499.000000     0.002004   483.872276     0.000000 
  54.523000   483.000000     0.002070   483.244533     0.000000 
  54.531000   497.000000     0.002012   482.668443     0.000000 
  54.539000   443.000000     0.002257   482.138514     0.000000 
  54.547000   460.000000     0.002174   481.649960     0.000000 
  54.555000   400.000000     0.002500   481.198593     0.000000 
  54.563000   458.000000     0.002183   480.780735     0.000000 
  54.571000   459.000000     0.002179   480.393150     0.000000 
  54.579000   457.000000     0.002188   480.032977     0.000000 
  54.587000   479.000000     0.002088   479.697682     0.000000 
  54.595000   490.000000     0.002041   479.385017     0.000000 
  54.603000   501.000000     0.001996   479.092977     0.000000 
  54.611000   481.000000     0.002079   478.819774     0.000000 
  54.619000   485.000000     0.002062   478.563809     0.000000 
  54.627000   501.000000     0.001996   478.323645     0.000000 
  54.635000   490.000000     0.002041   478.097993     0.000000 
  54.643000   492.000000     0.002033   477.885692     0.000000 
  54.651000   495.000000     0.002020   477.685692     0.000000 
  54.659000   461.000000     0.002169   477.497045     0.000000 
  54.667000   471.000000     0.002123   477.318892     0.000000 
  54.675000   508.000000     0.001969   477.150454     0.000000 
  54.683000   498.000000     0.002008   476.991020     0.000000 
  54.691000   516.000000     0.001938   476.839945     0.000000 
  54.699000   524.000000     0.001908   476.696640     0.000000 
  54.707000   502.000000     0.001992   476.560565     0.000000 
  54.715000   471.000000     0.002123   476.431228     0.000000 
  54.723000   493.000000     0.002028   476.308177     0.000000 
  54.731000   522.000000     0.001916   476.190997     0.000000 
  54.739000   485.000000     0.002062   476.079307     0.000000 
  54.747000   518.000000     0.001931   475.972756     0.000000 
  54.755000   541.000000     0.001848   475.871020     0.000000 
  54.763000   503.000000     0.001988   475.773800     0.000000 
  54.771000   491.000000     0.002037   475.680822     0.000000 
  54.779000   458.000000     0.002183   475.591830     0.000000 
  54.787000   498.000000     0.002008   475.506586     0.000000 
  54.795000   465.000000     0.002151   475.424873     0.000000 
  54.803000   455.000000     0.002198   475.346487     0.000000 
  54.811000   468.000000     0.002137   475.271238     0.000000 
  54.819000   470.000000     0.002128   475.198951     0.000000 
  54.827000   490.000000     0.002041   475.129462     0.000000 
  54.835000   487.000000     0.002053   475.062619     0.000000 
  54.843000   484.000000     0.002066   474.998278     0.000000 
  54.851000   519.000000     0.001927   474.936308     0.000000 
  54.859000   508.000000     0.001969   474.876583     0.000000 
  54.867000   481.000000     0.002079   474.818988     0.000000 
  54.875000   460.000000     0.002174   474.763413     0.000000 
  54.883000   435.000000     0.002299   474.709757     0.000000 
  54.891000   474.000000     0.002110   474.657924     0.000000 
  54.899000   479.000000     0.002088   474.607824     0.000000 
  54.907000   455.000000     0.002198   474.559372     0.000000 
  54.915000   497.000000     0.002012   474.512490     0.000000 
  54.923000   488.000000     0.002049   474.467102     0.000000 
  54.931000   472.000000     0.002119   474.423139     0.000000 
  54.939000   475.000000     0.002105   474.380534     0.000000 
  54.947000   465.000000     0.002151   474.339225     0.000000 
  54.955000   485.000000     0.002062   474.299153     0.000000 
  54.963000   512.000000     0.001953   474.260263     0.000000 
  54.971000   501.000000     0.001996   474.222501     0.000000 
  54.979000   477.000000     0.002096   474.185819     0.000000 
  54.987000   487.000000     0.002053   474.150169     0.000000 
  54.995000   475.000000     0.002105   474.115507     0.000000 
  55.003000   476.000000     0.002101   474.081791     0.000000 
  55.011000   462.000000     0.002165   474.048981     0.000000 
  55.019000   464.000000     0.002155   474.017039     0.000000 
  55.027000   506.000000     0.001976   473.985930     0.000000 
  55.035000   505.000000     0.001980   473.955619     0.000000 
  55.043000   504.000000     0.001984   473.926074     0.000000 
  55.051000   523.000000     0.001912   473.897264     0.000000 
  55.059000   517.000000     0.001934   473.869161     0.000000 
  55.067000   473.000000     0.002114   473.841736     0.000000 
  55.075000   492.000000     0.002033   473.814962     0.000000 
  55.083000   496.000000     0.002016   473.788816     0.000000 
  55.091000   477.000000     0.002096   473.763273     0.000000 
  55.099000   506.000000     0.001976   473.738310     0.000000 
  55.107000   401.000000     0.002494   473.713905     0.000000 
  55.115000   500.000000     0.002000   473.690038     0.000000 
  55.123000   446.000000     0.002242   473.666689     0.000000 
  55.131000   458.000000     0.002183   473.643838     0.000000 
  55.139000   466.000000     0.002146   473.621469     0.000000 
  55.147000   503.000000     0.001988   473.599563     0.000000 
  55.155000   504.000000     0.001984   473.578104     0.000000 
  55.163000   485.000000     0.002062   473.557077     0.000000 
  55.171000   473.000000     0.002114   473.536466     0.000000 
  55.179000   471.000000     0.002123   473.516257     0.000000 
  55.187000   482.000000     0.002075   473.496436     0.000000 
  55.195000   489.000000     0.002045   473.476989     0.000000 
  55.203000   483.000000     0.002070   473.457905     0.000000 
  55.211000   491.000000     0.002037   473.439171     0.000000 
  55.219000   507.000000     0.001972   473.420776     0.000000 
  55.227000   508.000000     0.001969   473.402707     0.000000 
  55.235000   495.000000     0.002020   473.384956     0.000000 
  55.243000   458.000000     0.002183   473.367510     0.000000 
  55.251000   507.000000     0.001972   473.350361     0.000000 
  55.259000   489.000000     0.002045   473.333499     0.000000 
  55.267000   457.000000     0.002188   473.316914     0.000000 
  55.275000   471.000000     0.002123   473.300599     0.000000 
  55.283000   478.000000     0.002092   473.284544     0.000000 
  55.291000   462.000000     0.002165   474.796511     0.000000 
  55.299000   467.000000     0.002141   474.795680     0.000000 
  55.307000   482.000000     0.002075   474.795299     0.000000 
  55.315000   492.000000     0.002033   474.795367     0.000000 
  55.323000   446.000000     0.002242   474.795881     0.000000 
  55.331000   496.000000     0.002016   474.796837     0.000000 
  55.339000   480.000000     0.002083   474.798235     0.000000 
  55.347000   477.000000     0.002096   474.800072     0.000000 
  55.355000   487.000000     0.002053   474.802348     0.000000 
  55.363000   487.000000     0.002053   474.805061     0.000000 
  55.371000   445.000000     0.002247   474.808210     0.000000 
  55.379000   474.000000     0.002110   474.811797     0.000000 
  55.387000   488.000000     0.002049   474.815819     0.000000 
  55.395000   476.000000     0.002101   474.820279     0.000000 
  55.403000   485.000000     0.002062   474.825176     0.000000 
  55.411000   483.000000     0.002070   474.830512     0.000000 
  55.419000   485.000000     0.002062   474.836287     0.000000 
  55.427000   478.000000     0.002092   474.842504     0.000000 
  55.435000   502.000000     0.001992   474.849163     0.000000 
  55.443000   519.000000     0.001927   474.856269     0.000000 
  55.451000   475.000000     0.002105   474.863821     0.000000 
  55.459000   448.000000     0.002232   474.871825     0.000000 
  55.467000   500.000000     0.002000   474.880282     0.000000 
  55.475000   508.000000     0.001969   474.889196     0.000000 
  55.483000   451.000000     0.002217   474.898570     0.000000 
  55.491000   424.000000     0.002358   474.908410     0.000000 
  55.499000   475.000000     0.002105   474.918718     0.000000 
  55.507000   453.000000     0.002208   474.929499     0.000000 
  55.515000   455.000000     0.002198   474.940759     0.000000 
  55.523000   474.000000     0.002110   474.952503     0.000000 
  55.531000   459.000000     0.002179   474.964736     0.000000 
  55.539000   482.000000     0.002075   474.977463     0.000000 
  55.547000   483.000000     0.002070   474.990692     0.000000 
  55.555000   473.000000     0.002114   475.004428     0.000000 
  55.563000   480.000000     0.002083   475.018679     0.000000 
  55.571000   487.000000     0.002053   475.033451     0.000000 
  55.579000   488.000000     0.002049   475.048753     0.000000 
  55.587000   474.000000     0.002110   475.064591     0.000000 
  55.595000   478.000000     0.002092   475.080975     0.000000 
  55.603000   493.000000     0.002028   475.097913     0.000000 
  55.611000   469.000000     0.002132   475.115414     0.000000 
  55.619000   458.000000     0.002183   475.133488     0.000000 
  55.627000   444.000000     0.002252   475.152143     0.000000 
  55.635000   497.000000     0.002012   475.171391     0.000000 
  55.643000   508.000000     0.001969   475.191242     0.000000 
  55.651000   507.000000     0.001972   475.211707     0.000000 
  55.659000   466.000000     0.002146   475.232798     0.000000 
  55.667000   466.000000     0.002146   475.254527     0.000000 
  55.675000   468.000000     0.002137   475.276905     0.000000 
  55.683000   472.000000     0.002119   475.299947     0.000000 
  55.691000   473.000000     0.002114   475.323665     0.000000 
  55.699000   446.000000     0.002242   475.348074     0.000000 
  55.707000   491.000000     0.002037   475.373187     0.000000 
  55.715000   466.000000     0.002146   475.399021     0.000000 
  55.723000   478.000000     0.002092   475.425590     0.000000 
  55.731000   479.000000     0.002088   475.452910     0.000000 
  55.739000   484.000000     0.002066   475.481000     0.000000 
  55.747000   491.000000     0.002037   475.509875     0.000000 
  55.755000   473.000000     0.002114   475.539555     0.000000 
  55.763000   470.000000     0.002128   475.570057     0.000000 
  55.771000   475.000000     0.002105   475.601402     0.000000 
  55.779000   471.000000     0.002123   475.633610     0.000000 
  55.787000   449.000000     0.002227   475.666701     0.000000 
  55.795000   458.000000     0.002183   475.700698     0.000000 
  55.803000   464.000000     0.002155   475.735622     0.000000 
  55.811000   436.000000     0.002294   475.771498     0.000000 
  55.819000   468.000000     0.002137   475.808349     0.000000 
  55.827000   490.000000     0.002041   475.846201     0.000000 
  55.835000   464.000000     0.002155   475.885081     0.000000 
  55.843000   503.000000     0.001988   475.925014     0.000000 
  55.851000   484.000000     0.002066   475.966030     0.000000 
  55.859000   460.000000     0.002174   476.008158     0.000000 
  55.867000   450.000000     0.002222   476.051427     0.000000 
  55.875000   445.000000     0.002247   475.816017     0.000000 
  55.883000   463.000000     0.002160   475.864417     0.000000 
  55.891000   459.000000     0.002179   475.914018     0.000000 
  55.899000   448.000000     0.002232   475.964854     0.000000 
  55.907000   437.000000     0.002288   476.016965     0.000000 
  55.915000   442.000000     0.002262   476.070389     0.000000 
  55.923000   464.000000     0.002155   476.125166     0.000000 
  55.931000   448.000000     0.002232   476.181338     0.000000 
  55.939000   451.000000     0.002217   476.238949     0.000000 
  55.947000   438.000000     0.002283   476.298046     0.000000 
  55.955000   438.000000     0.002283   476.358673     0.000000 
  55.963000   472.000000     0.002119   476.420882     0.000000 
  55.971000   451.000000     0.002217   476.484723     0.000000 
  55.979000   444.000000     0.002252   476.550249     0.000000 
  55.987000   476.000000     0.002101   476.617515     0.000000 
  55.995000   455.000000     0.002198   476.686580     0.000000 
  56.003000   463.000000     0.002160   476.757502     0.000000 
  56.011000   448.000000     0.002232   476.830346     0.000000 
  56.019000   479.000000     0.002088   476.905175     0.000000 
  56.027000   507.000000     0.001972   476.982058     0.000000 
  56.035000   499.000000     0.002004   477.061065     0.000000 
  56.043000   458.000000     0.002183   477.142272     0.000000 
  56.051000   489.000000     0.002045   477.225754     0.000000 
  56.059000   458.000000     0.002183   477.311593     0.000000 
  56.067000   460.000000     0.002174   477.399873     0.000000 
  56.075000   489.000000     0.002045   477.490682     0.000000 
  56.083000   463.000000     0.002160   477.584111     0.000000 
  56.091000   476.000000     0.002101   477.680258     0.000000 
  56.099000   467.000000     0.002141   477.779223     0.000000 
  56.107000   478.000000     0.002092   477.881110     0.000000 
  56.115000   470.000000     0.002128   477.986031     0.000000 
  56.123000   481.000000     0.002079   478.094101     0.000000 
  56.131000   479.000000     0.002088   478.205442     0.000000 
  56.139000   433.000000     0.002309   478.320180     0.000000 
  56.147000   450.000000     0.002222   478.438448     0.000000 
  56.155000   496.000000     0.002016   478.560386     0.000000 
  56.163000   497.000000     0.002012   478.686141     0.000000 
  56.171000   454.000000     0.002203   478.815868     0.000000 
  56.179000   429.000000     0.002331   478.949727     0.000000 
  56.187000   426.000000     0.002347   479.087890     0.000000 
  56.195000   442.000000     0.002262   479.230536     0.000000 
  56.203000   451.000000     0.002217   479.377853     0.000000 
  56.211000   510.000000     0.001961   479.708470     0.000000 
  56.219000   473.000000     0.002114   479.867434     0.000000 
  56.227000   441.000000     0.002268   480.031721     0.000000 
  56.235000   472.000000     0.002119   480.201565     0.000000 
  56.243000   474.000000     0.002110   480.377212     0.000000 
  56.251000   482.000000     0.002075   480.558922     0.000000 
  56.259000   480.000000     0.002083   481.070742     0.000000 
  56.267000   443.000000     0.002257   481.268501     0.000000 
  56.275000   466.000000     0.002146   481.473239     0.000000 
  56.283000   458.000000     0.002183   481.685281     0.000000 
  56.291000   491.000000     0.002037   481.904971     0.000000 
  56.299000   457.000000     0.002188   482.132676     0.000000 
  56.307000   450.000000     0.002222   482.368782     0.000000 
  56.315000   465.000000     0.002151   482.613702     0.000000 
  56.323000   468.000000     0.002137   482.867872     0.000000 
  56.331000   493.000000     0.002028   483.131756     0.000000 
  56.339000   507.000000     0.001972   483.405848     0.000000 
  56.347000   473.000000     0.002114   483.690674     0.000000 
  56.355000   464.000000     0.002155   483.986793     0.000000 
  56.363000   439.000000     0.002278   484.294802     0.000000 
  56.371000   431.000000     0.002320   484.615338     0.000000 
  56.379000   427.000000     0.002342   484.949080     0.000000 
  56.387000   485.000000     0.002062   485.296756     0.000000 
  56.395000   488.000000     0.002049   485.659142     0.000000 
  56.403000   467.000000     0.002141   486.037071     0.000000 
  56.411000   467.000000     0.002141   486.431433     0.000000 
  56.419000   468.000000     0.002137   486.843187     0.000000 
  56.427000   531.000000     0.001883   487.273358     0.000000 
  56.435000   501.000000     0.001996   487.723052     0.000000 
  56.443000   456.000000     0.002193   488.193454     0.000000 
  56.451000   483.000000     0.002070   488.685845     0.000000 
  56.459000   481.000000     0.002079   489.201604     0.000000 
  56.467000   435.000000     0.002299   489.742219     0.000000 
  56.475000   458.000000     0.002183   490.309301     0.000000 
  56.483000   451.000000     0.002217   490.904590     0.000000 
  56.491000   468.000000     0.002137   491.529971     0.000000 
  56.499000   474.000000     0.002110   492.187492     0.000000 
  56.507000   483.000000     0.002070   492.879375     0.000000 
  56.515000   514.000000     0.001946   493.608036     0.000000 
  56.523000   501.000000     0.001996   494.376109     0.000000 
  56.531000   506.000000     0.001976   495.186463     0.000000 
  56.539000   506.000000     0.001976   496.042236     0.000000 
  56.547000   497.000000     0.002012   496.946859     0.000000 
  56.555000   495.000000     0.002020   497.904091     0.000000 
  56.563000   463.000000     0.002160   498.918059     0.000000 
  56.571000   520.000000     0.001923   499.993299     0.000000 
  56.579000   516.000000     0.001938   501.134807     0.000000 
  56.587000   493.000000     0.002028   502.348095     0.000000 
  56.595000   480.000000     0.002083   503.639258     0.000000 
  56.603000   455.000000     0.002198   505.015044     0.000000 
  56.611000   479.000000     0.002088   506.482944     0.000000 
  56.619000   487.000000     0.002053   508.051287     0.000000 
  56.627000   485.000000     0.002062   509.729360     0.000000 
  56.635000   525.000000     0.001905   511.527534     0.000000 
  56.643000   493.000000     0.002028   513.457424     0.000000 
  56.651000   485.000000     0.002062   515.532067     0.000000 
  56.659000   491.000000     0.002037   517.766135     0.000000 
  56.667000   455.000000     0.002198   520.176186     0.000000 
  56.675000   468.000000     0.002137   522.780950     0.000000 
  56.683000   462.000000     0.002165   525.601689     0.000000 
  56.691000   458.000000     0.002183   528.662609     0.000000 
  56.699000   463.000000     0.002160   531.991373     0.000000 
  56.707000   448.000000     0.002232   535.619715     0.000000 
  56.715000   473.000000     0.002114   539.584228     0.000000 
  56.723000   497.000000     0.002012   543.927367     0.000000 
  56.731000   487.000000     0.002053   548.698793     0.000000 
  56.739000   468.000000     0.002137   553.957224     0.000000 
  56.747000   463.000000     0.002160   559.773078     0.000000 
  56.755000   518.000000     0.001931   566.232334     0.000000 
  56.763000   540.000000     0.001852   573.442233     0.000000 
  56.771000   505.000000     0.001980   581.539702     0.000000 
  56.779000   503.000000     0.001988   590.703608     0.000000 
  56.787000   515.000000     0.001942   601.172156     0.000000 
  56.795000   489.000000     0.002045   613.266711     0.000000 
  56.803000   577.000000     0.001733   627.422944     0.000000 
  56.811000   603.000000     0.001658   644.229230     0.000000 
  56.819000   641.000000     0.001560   664.470512     0.000000 
  56.827000   667.000000     0.001499   689.173358     0.000000 
  56.835000   691.000000     0.001447   719.644855     0.000000 
  56.843000   843.000000     0.001186   757.494874     0.000000 
  56.851000   907.000000     0.001103   804.628944     0.000000 
  56.859000   970.000000     0.001031   863.198482     0.000000 
  56.867000  1028.000000     0.000973   935.497117     0.000000 
  56.875000  1134.000000     0.000882  1023.796282     0.000000 
  56.883000  1263.000000     0.000792  1130.117725     0.000000 
  56.891000  1416.000000     0.000706  1255.941478     0.000000 
  56.899000  1568.000000     0.000638  1401.837940     0.000000 
  56.907000  1695.000000     0.000590  1566.987578     0.000000 
  56.915000  1904.000000     0.000525  1748.516413     0.000000 
  56.923000  2233.000000     0.000448  1940.568306     0.000000 
  56.931000  2600.000000     0.000385  2133.158966     0.000000 
  56.939000  2967.000000     0.000337  2311.267675     0.000000 
  56.947000  3591.000000     0.000278  2455.327159     0.000000 
  56.955000  3805.000000     0.000263  2544.629043     0.000000 
  56.963000  3955.000000     0.000253  2563.801260     0.000000 
  56.971000  4014.000000     0.000249  2509.271923     0.000000 
  56.979000  3661.000000     0.000273  2390.955650     0.000000 
  56.987000  3315.000000     0.000302  2227.740367     0.000000 
  56.995000  2727.000000     0.000367  2040.427730     0.000000 
  57.003000  2374.000000     0.000421  1846.587237     0.000000 
  57.011000  1998.000000     0.000501  1658.729072     0.000000 
  57.019000  1692.000000     0.000591  1484.683806     0.000000 
  57.027000  1471.000000     0.000680  1328.723774     0.000000 
  57.035000  1264.000000     0.000791  1192.674122     0.000000 
  57.043000  1151.000000     0.000869  1076.512859     0.000000 
  57.051000  1019.000000     0.000981   979.223395     0.000000 
  57.059000   993.000000     0.001007   899.021543     0.000000 
  57.067000   979.000000     0.001021   833.731801     0.000000 
  57.075000   905.000000     0.001105   781.047502     0.000000 
  57.083000   820.000000     0.001220   738.727547     0.000000 
  57.091000   771.000000     0.001297   704.730757     0.000000 
  57.099000   689.000000     0.001451   677.292151     0.000000 
  57.107000   632.000000     0.001582   654.950399     0.000000 
  57.115000   623.000000     0.001605   636.538970     0.000000 
  57.123000   551.000000     0.001815   621.154300     0.000000 
  57.131000   588.000000     0.001701   608.112780     0.000000 
  57.139000   574.000000     0.001742   596.905560     0.000000 
  57.147000   560.000000     0.001786   587.156981     0.000000 
  57.155000   492.000000     0.002033   578.589604     0.000000 
  57.163000   510.000000     0.001961   570.996699     0.000000 
  57.171000   490.000000     0.002041   564.221685     0.000000 
  57.179000   463.000000     0.002160   558.143410     0.000000 
  57.187000   483.000000     0.002070   552.665910     0.000000 
  57.195000   482.000000     0.002075   547.711434     0.000000 
  57.203000   497.000000     0.002012   543.215734     0.000000 
  57.211000   494.000000     0.002024   539.124857     0.000000 
  57.219000   468.000000     0.002137   535.392935     0.000000 
  57.227000   461.000000     0.002169   531.980605     0.000000 
  57.235000   464.000000     0.002155   528.853851     0.000000 
  57.243000   497.000000     0.002012   525.983112     0.000000 
  57.251000   489.000000     0.002045   523.342591     0.000000 
  57.259000   480.000000     0.002083   520.909691     0.000000 
  57.267000   457.000000     0.002188   518.664560     0.000000 
  57.275000   473.000000     0.002114   516.589694     0.000000 
  57.283000   468.000000     0.002137   514.669631     0.000000 
  57.291000   494.000000     0.002024   512.890672     0.000000 
  57.299000   438.000000     0.002283   511.240658     0.000000 
  57.307000   500.000000     0.002000   509.708767     0.000000 
  57.315000   447.000000     0.002237   508.285355     0.000000 
  57.323000   433.000000     0.002309   506.961807     0.000000 
  57.331000   447.000000     0.002237   505.730419     0.000000 
  57.339000   453.000000     0.002208   504.584289     0.000000 
  57.347000   446.000000     0.002242   503.517228     0.000000 
  57.355000   455.000000     0.002198   502.523682     0.000000 
  57.363000   423.000000     0.002364   501.598660     0.000000 
  57.371000   506.000000     0.001976   500.737678     0.000000 
  57.379000   489.000000     0.002045   499.936708     0.000000 
  57.387000   466.000000     0.002146   499.192131     0.000000 
  57.395000   533.000000     0.001876   498.500698     0.000000 
  57.403000   480.000000     0.002083   497.859500     0.000000 
  57.411000   511.000000     0.001957   497.265934     0.000000 
  57.419000   454.000000     0.002203   496.717680     0.000000 
  57.427000   428.000000     0.002336   496.212679     0.000000 
  57.435000   447.000000     0.002237   495.749115     0.000000 
  57.443000   473.000000     0.002114   495.325395     0.000000 
  57.451000   480.000000     0.002083   494.940143     0.000000 
  57.459000   487.000000     0.002053   494.592180     0.000000 
  57.467000   503.000000     0.001988   494.280522     0.000000 
  57.475000   508.000000     0.001969   494.004371     0.000000 
  57.483000   479.000000     0.002088   493.763108     0.000000 
  57.491000   447.000000     0.002237   493.556294     0.000000 
  57.499000   441.000000     0.002268   493.383665     0.000000 
  57.507000   435.000000     0.002299   493.245136     0.000000 
  57.515000   451.000000     0.002217   493.140802     0.000000 
  57.523000   495.000000     0.002020   493.070943     0.000000 
  57.531000   443.000000     0.002257   493.036032     0.000000 
  57.539000   433.000000     0.002309   493.036745     0.000000 
  57.547000   411.000000     0.002433   493.073972     0.000000 
  57.555000   425.000000     0.002353   493.148831     0.000000 
  57.563000   426.000000     0.002347   493.262689     0.000000 
  57.571000   422.000000     0.002370   493.417184     0.000000 
  57.579000   481.000000     0.002079   493.614247     0.000000 
  57.587000   468.000000     0.002137   493.856141     0.000000 
  57.595000   459.000000     0.002179   494.145491     0.000000 
  57.603000   456.000000     0.002193   494.485331     0.000000 
  57.611000   452.000000     0.002212   494.879159     0.000000 
  57.619000   444.000000     0.002252   495.330992     0.000000 
  57.627000   417.000000     0.002398   495.845445     0.000000 
  57.635000   432.000000     0.002315   496.427818     0.000000 
  57.643000   454.000000     0.002203   497.084197     0.000000 
  57.651000   474.000000     0.002110   497.821589     0.000000 
  57.659000   508.000000     0.001969   498.648078     0.000000 
  57.667000   489.000000     0.002045   499.573024     0.000000 
  57.675000   441.000000     0.002268   500.607332     0.000000 
  57.683000   434.000000     0.002304   501.763800     0.000000 
  57.691000   474.000000     0.002110   503.057604     0.000000 
  57.699000   485.000000     0.002062   504.506984     0.000000 
  57.707000   510.000000     0.001961   506.134223     0.000000 
  57.715000   492.000000     0.002033   507.967043     0.000000 
  57.723000   479.000000     0.002088   510.040596     0.000000 
  57.731000   478.000000     0.002092   512.400235     0.000000 
  57.739000   451.000000     0.002217   515.105266     0.000000 
  57.747000   466.000000     0.002146   518.233859     0.000000 
  57.755000   519.000000     0.001927   521.889191     0.000000 
  57.763000   509.000000     0.001965   526.206720     0.000000 
  57.771000   543.000000     0.001842   531.362229     0.000000 
  57.779000   515.000000     0.001942   537.579956     0.000000 
  57.787000   534.000000     0.001873   545.139747     0.000000 
  57.795000   551.000000     0.001815   554.381834     0.000000 
  57.803000   551.000000     0.001815   565.707600     0.000000 
  57.811000   516.000000     0.001938   579.574564     0.000000 
  57.819000   523.000000     0.001912   596.483736     0.000000 
  57.827000   564.000000     0.001773   616.957264     0.000000 
  57.835000   603.000000     0.001658   641.503488     0.000000 
  57.843000   611.000000     0.001637   670.564652     0.000000 
  57.851000   621.000000     0.001610   704.439404     0.000000 
  57.859000   665.000000     0.001504   743.169569     0.000000 
  57.867000   728.000000     0.001374   786.384131     0.000000 
  57.875000   792.000000     0.001263   833.116201     0.000000 
  57.883000   835.000000     0.001198   881.664839     0.000000 
  57.891000   915.000000     0.001093   929.646212     0.000000 
  57.899000   983.000000     0.001017   974.367987     0.000000 
  57.907000  1072.000000     0.000933  1013.431967     0.000000 
  57.915000  1176.000000     0.000850  1045.127904     0.000000 
  57.923000  1268.000000     0.000789  1068.203189     0.000000 
  57.931000  1375.000000     0.000727  1081.204595     0.000000 
  57.939000  1482.000000     0.000675  1082.173865     0.000000 
  57.947000  1566.000000     0.000639  1069.288027     0.000000 
  57.955000  1480.000000     0.000676  1042.131874     0.000000 
  57.963000  1399.000000     0.000715  1002.538677     0.000000 
  57.971000  1246.000000     0.000803   954.234653     0.000000 
  57.979000  1055.000000     0.000948   901.614885     0.000000 
  57.987000   888.000000     0.001126   848.575914     0.000000 
  57.995000   769.000000     0.001300   797.952519     0.000000 
  58.003000   684.000000     0.001462   751.496465     0.000000 
  58.011000   650.000000     0.001538   710.102690     0.000000 
  58.019000   659.000000     0.001517   674.066255     0.000000 
  58.027000   658.000000     0.001520   643.286917     0.000000 
  58.035000   585.000000     0.001709   617.414482     0.000000 
  58.043000   526.000000     0.001901   595.951320     0.000000 
  58.051000   541.000000     0.001848   578.327239     0.000000 
  58.059000   538.000000     0.001859   563.955487     0.000000 
  58.067000   533.000000     0.001876   552.273685     0.000000 
  58.075000   457.000000     0.002188   542.771404     0.000000 
  58.083000   550.000000     0.001818   535.005786     0.000000 
  58.091000   487.000000     0.002053   528.607124     0.000000 
  58.099000   496.000000     0.002016   523.276806     0.000000 
  58.107000   560.000000     0.001786   518.780241     0.000000 
  58.115000   556.000000     0.001799   514.937162     0.000000 
  58.123000   546.000000     0.001832   511.611215     0.000000 
  58.131000   468.000000     0.002137   508.700159     0.000000 
  58.139000   508.000000     0.001969   506.127415     0.000000 
  58.147000   501.000000     0.001996   503.835241     0.000000 
  58.155000   512.000000     0.001953   501.779510     0.000000 
  58.163000   492.000000     0.002033   499.925867     0.000000 
  58.171000   464.000000     0.002155   498.246996     0.000000 
  58.179000   433.000000     0.002309   496.720715     0.000000 
  58.187000   433.000000     0.002309   495.328667     0.000000 
  58.195000   468.000000     0.002137   494.055419     0.000000 
  58.203000   501.000000     0.001996   492.887831     0.000000 
  58.211000   480.000000     0.002083   491.814611     0.000000 
  58.219000   451.000000     0.002217   490.825978     0.000000 
  58.227000   463.000000     0.002160   489.913418     0.000000 
  58.235000   482.000000     0.002075   489.069484     0.000000 
  58.243000   436.000000     0.002294   488.287638     0.000000 
  58.251000   455.000000     0.002198   487.562124     0.000000 
  58.259000   453.000000     0.002208   486.887859     0.000000 
  58.267000   403.000000     0.002481   486.260343     0.000000 
  58.275000   418.000000     0.002392   485.675584     0.000000 
  58.283000   416.000000     0.002404   485.130033     0.000000 
  58.291000   454.000000     0.002203   484.620532     0.000000 
  58.299000   431.000000     0.002320   484.144261     0.000000 
  58.307000   484.000000     0.002066   483.698706     0.000000 
  58.315000   440.000000     0.002273   483.281617     0.000000 
  58.323000   433.000000     0.002309   482.890983     0.000000 
  58.331000   467.000000     0.002141   482.525008     0.000000 
  58.339000   486.000000     0.002058   482.182083     0.000000 
  58.347000   473.000000     0.002114   481.860773     0.000000 
  58.355000   449.000000     0.002227   481.559801     0.000000 
  58.363000   419.000000     0.002387   481.278029     0.000000 
  58.371000   443.000000     0.002257   481.014452     0.000000 
  58.379000   484.000000     0.002066   480.768187     0.000000 
  58.387000   463.000000     0.002160   480.538462     0.000000 
  58.395000   440.000000     0.002273   480.324614     0.000000 
  58.403000   446.000000     0.002242   480.126082     0.000000 
  58.411000   449.000000     0.002227   479.942401     0.000000 
  58.419000   471.000000     0.002123   479.773205     0.000000 
  58.427000   466.000000     0.002146   479.618224     0.000000 
  58.435000   476.000000     0.002101   479.477282     0.000000 
  58.443000   448.000000     0.002232   479.350304     0.000000 
  58.451000   451.000000     0.002217   479.237316     0.000000 
  58.459000   478.000000     0.002092   479.138455     0.000000 
  58.467000   426.000000     0.002347   479.053973     0.000000 
  58.475000   451.000000     0.002217   478.984251     0.000000 
  58.483000   460.000000     0.002174   478.929809     0.000000 
  58.491000   393.000000     0.002545   478.891328     0.000000 
  58.499000   501.000000     0.001996   478.869673     0.000000 
  58.507000   453.000000     0.002208   478.865922     0.000000 
  58.515000   465.000000     0.002151   478.881414     0.000000 
  58.523000   463.000000     0.002160   478.917805     0.000000 
  58.531000   446.000000     0.002242   478.977163     0.000000 
  58.539000   460.000000     0.002174   479.062092     0.000000 
  58.547000   466.000000     0.002146   479.175925     0.000000 
  58.555000   447.000000     0.002237   479.323003     0.000000 
  58.563000   472.000000     0.002119   479.509071     0.000000 
  58.571000   457.000000     0.002188   479.741827     0.000000 
  58.579000   427.000000     0.002342   480.031665     0.000000 
  58.587000   433.000000     0.002309   480.392616     0.000000 
  58.595000   420.000000     0.002381   480.843473     0.000000 
  58.603000   450.000000     0.002222   481.409047     0.000000 
  58.611000   458.000000     0.002183   482.121390     0.000000 
  58.619000   409.000000     0.002445   483.020797     0.000000 
  58.627000   460.000000     0.002174   484.156257     0.000000 
  58.635000   455.000000     0.002198   485.585037     0.000000 
  58.643000   523.000000     0.001912   485.864755     0.000000 
  58.651000   493.000000     0.002028   488.089511     0.000000 
  58.659000   451.000000     0.002217   490.804610     0.000000 
  58.667000   473.000000     0.002114   494.068108     0.000000 
  58.675000   460.000000     0.002174   497.921713     0.000000 
  58.683000   477.000000     0.002096   502.380096     0.000000 
  58.691000   439.000000     0.002278   507.416679     0.000000 
  58.699000   474.000000     0.002110   512.943779     0.000000 
  58.707000   485.000000     0.002062   518.784921     0.000000 
  58.715000   493.000000     0.002028   524.641072     0.000000 
  58.723000   483.000000     0.002070   530.064440     0.000000 
  58.731000   486.000000     0.002058   534.473020     0.000000 
  58.739000   541.000000     0.001848   537.248346     0.000000 
  58.747000   563.000000     0.001776   537.921262     0.000000 
  58.755000   557.000000     0.001795   536.361504     0.000000 
  58.763000   515.000000     0.001942   532.837101     0.000000 
  58.771000   501.000000     0.001996   527.895180     0.000000 
  58.779000   533.000000     0.001876   522.158546     0.000000 
  58.787000   499.000000     0.002004   516.167024     0.000000 
  58.795000   466.000000     0.002146   510.313505     0.000000 
  58.803000   426.000000     0.002347   504.849025     0.000000 
  58.811000   480.000000     0.002083   499.914395     0.000000 
  58.819000   504.000000     0.001984   495.572516     0.000000 
  58.827000   450.000000     0.002222   491.833117     0.000000 
  58.835000   457.000000     0.002188   488.670304     0.000000 
  58.843000   433.000000     0.002309   486.035289     0.000000 
  58.851000   489.000000     0.002045   483.866188     0.000000 
  58.859000   433.000000     0.002309   482.095735     0.000000 
  58.867000   471.000000     0.002123   480.657226     0.000000 
  58.875000   447.000000     0.002237   479.488737     0.000000 
  58.883000   504.000000     0.001984   478.535714     0.000000 
  58.891000   488.000000     0.002049   477.752147     0.000000 
  58.899000   411.000000     0.002433   477.100636     0.000000 
  58.907000   465.000000     0.002151   476.551700     0.000000 
  58.915000   448.000000     0.002232   476.082670     0.000000 
  58.923000   466.000000     0.002146   475.676425     0.000000 
  58.931000   477.000000     0.002096   475.320177     0.000000 
  58.939000   477.000000     0.002096   475.004404     0.000000 
  58.947000   462.000000     0.002165   474.721979     0.000000 
  58.955000   446.000000     0.002242   474.467501     0.000000 
  58.963000   467.000000     0.002141   474.236802     0.000000 
  58.971000   430.000000     0.002326   474.026594     0.000000 
  58.979000   395.000000     0.002532   473.834229     0.000000 
  58.987000   424.000000     0.002358   473.657527     0.000000 
  58.995000   446.000000     0.002242   473.494665     0.000000 
  59.003000   466.000000     0.002146   473.344096     0.000000 
  59.011000   441.000000     0.002268   473.204492     0.000000 
  59.019000   452.000000     0.002212   473.074707     0.000000 
  59.027000   418.000000     0.002392   472.953745     0.000000 
  59.035000   475.000000     0.002105   472.840732     0.000000 
  59.043000   426.000000     0.002347   472.734905     0.000000 
  59.051000   443.000000     0.002257   472.635588     0.000000 
  59.059000   470.000000     0.002128   472.542186     0.000000 
  59.067000   464.000000     0.002155   472.454172     0.000000 
  59.075000   444.000000     0.002252   472.371075     0.000000 
  59.083000   434.000000     0.002304   472.292478     0.000000 
  59.091000   444.000000     0.002252   472.218007     0.000000 
  59.099000   451.000000     0.002217   472.147326     0.000000 
  59.107000   485.000000     0.002062   472.080135     0.000000 
  59.115000   454.000000     0.002203   472.016164     0.000000 
  59.123000   455.000000     0.002198   471.955167     0.000000 
  59.131000   464.000000     0.002155   471.896925     0.000000 
  59.139000   466.000000     0.002146   471.841238     0.000000 
  59.147000   468.000000     0.002137   471.787923     0.000000 
  59.155000   461.000000     0.002169   471.736816     0.000000 
  59.163000   449.000000     0.002227   471.687767     0.000000 
  59.171000   459.000000     0.002179   471.640637     0.000000 
  59.179000   446.000000     0.002242   471.595303     0.000000 
  59.187000   457.000000     0.002188   471.551648     0.000000 
  59.195000   448.000000     0.002232   471.509567     0.000000 
  59.203000   460.000000     0.002174   471.468963     0.000000 
  59.211000   421.000000     0.002375   471.429747     0.000000 
  59.219000   459.000000     0.002179   471.391837     0.000000 
  59.227000   486.000000     0.002058   471.355156     0.000000 
  59.235000   483.000000     0.002070   471.319635     0.000000 
  59.243000   444.000000     0.002252   471.285209     0.000000 
  59.251000   410.000000     0.002439   471.251817     0.000000 
  59.259000   473.000000     0.002114   471.219403     0.000000 
  59.267000   419.000000     0.002387   471.187916     0.000000 
  59.275000   488.000000     0.002049   471.157307     0.000000 
  59.283000   458.000000     0.002183   471.127531     0.000000 
  59.291000   439.000000     0.002278   471.098547     0.000000 
  59.299000   460.000000     0.002174   471.070314     0.000000 
  59.307000   437.000000     0.002288   471.042796     0.000000 
  59.315000   441.000000     0.002268   471.015960     0.000000 
  59.323000   459.000000     0.002179   470.989772     0.000000 
  59.331000   448.000000     0.002232   470.964203     0.000000 
  59.339000   465.000000     0.002151   470.939225     0.000000 
  59.347000   476.000000     0.002101   470.914811     0.000000 
  59.355000   460.000000     0.002174   470.890935     0.000000 
  59.363000   451.000000     0.002217   470.867575     0.000000 
  59.371000   470.000000     0.002128   470.844708     0.000000 
  59.379000   450.000000     0.002222   470.822314     0.000000 
  59.387000   444.000000     0.002252   470.800373     0.000000 
  59.395000   503.000000     0.001988   470.778865     0.000000 
  59.403000   508.000000     0.001969   470.757774     0.000000 
  59.411000   467.000000     0.002141   470.737083     0.000000 
  59.419000   437.000000     0.002288   470.716776     0.000000 
  59.427000   441.000000     0.002268   470.696839     0.000000 
  59.435000   457.000000     0.002188   470.677256     0.000000 
  59.443000   449.000000     0.002227   470.658015     0.000000 
  59.451000   454.000000     0.002203   470.639103     0.000000 
  59.459000   495.000000     0.002020   470.620508     0.000000 
  59.467000   443.000000     0.002257   470.602218     0.000000 
  59.475000   477.000000     0.002096   470.584223     0.000000 
  59.483000   455.000000     0.002198   470.566511     0.000000 
  59.491000   442.000000     0.002262   470.549073     0.000000 
  59.499000   451.000000     0.002217   470.531900     0.000000 
  59.507000   424.000000     0.002358   470.514982     0.000000 
  59.515000   402.000000     0.002488   470.498311     0.000000 
  59.523000   437.000000     0.002288   470.481879     0.000000 
  59.531000   491.000000     0.002037   470.465677     0.000000 
  59.539000   493.000000     0.002028   470.449699     0.000000 
  59.547000   457.000000     0.002188   470.433937     0.000000 
  59.555000   442.000000     0.002262   470.418384     0.000000 
  59.563000   406.000000     0.002463   470.403034     0.000000 
  59.571000   413.000000     0.002421   470.387880     0.000000 
  59.579000   480.000000     0.002083   470.372916     0.000000 
  59.587000   468.000000     0.002137   470.358136     0.000000 
  59.595000   419.000000     0.002387   470.343536     0.000000 
  59.603000   436.000000     0.002294   470.152420     0.000000 
  59.611000   441.000000     0.002268   470.139811     0.000000 
  59.619000   450.000000     0.002222   470.127343     0.000000 
  59.627000   466.000000     0.002146   470.115011     0.000000 
  59.635000   430.000000     0.002326   470.102810     0.000000 
  59.643000   467.000000     0.002141   470.090738     0.000000 
  59.651000   442.000000     0.002262   469.760334     0.000000 
  59.659000   448.000000     0.002232   469.751475     0.000000 
  59.667000   477.000000     0.002096   469.742692     0.000000 
  59.675000   479.000000     0.002088   469.733982     0.000000 
  59.683000   456.000000     0.002193   469.725342     0.000000 
  59.691000   457.000000     0.002188   469.716772     0.000000 
  59.699000   462.000000     0.002165   469.708267     0.000000 
  59.707000   436.000000     0.002294   469.699826     0.000000 
  59.715000   436.000000     0.002294   469.691446     0.000000 
  59.723000   469.000000     0.002132   469.683127     0.000000 
  59.731000   458.000000     0.002183   469.674865     0.000000 
  59.739000   443.000000     0.002257   469.666659     0.000000 
  59.747000   470.000000     0.002128   469.658507     0.000000 
  59.755000   467.000000     0.002141   469.650407     0.000000 
  59.763000   459.000000     0.002179   469.642358     0.000000 
  59.771000   467.000000     0.002141   469.634358     0.000000 
  59.779000   471.000000     0.002123   469.626405     0.000000 
  59.787000   457.000000     0.002188   469.618499     0.000000 
  59.795000   441.000000     0.002268   469.610637     0.000000 
  59.803000   421.000000     0.002375   469.602818     0.000000 
  59.811000   444.000000     0.002252   469.595042     0.000000 
  59.819000   441.000000     0.002268   469.587305     0.000000 
  59.827000   432.000000     0.002315   469.579609     0.000000 
  59.835000   462.000000     0.002165   469.571950     0.000000 
  59.843000   446.000000     0.002242   469.564329     0.000000 
  59.851000   435.000000     0.002299   469.556744     0.000000 
  59.859000   444.000000     0.002252   469.549193     0.000000 
  59.867000   431.000000     0.002320   469.541677     0.000000 
  59.875000   437.000000     0.002288   469.534194     0.000000 
  59.883000   466.000000     0.002146   469.526742     0.000000 
  59.891000   432.000000     0.002315   469.519322     0.000000 
  59.899000   445.000000     0.002247   469.511932     0.000000 
  59.907000   470.000000     0.002128   469.504571     0.000000 
  59.915000   450.000000     0.002222   469.497238     0.000000 
  59.923000   453.000000     0.002208   469.489934     0.000000 
  59.931000   445.000000     0.002247   469.482656     0.000000 
  59.939000   466.000000     0.002146   469.475405     0.000000 
  59.947000   428.000000     0.002336   469.468179     0.000000 
  59.955000   424.000000     0.002358   469.460977     0.000000 
  59.963000   482.000000     0.002075   469.453800     0.000000 
  59.971000   508.000000     0.001969   469.446647     0.000000 
  59.979000   467.000000     0.002141   469.439516     0.000000 
  59.987000   476.000000     0.002101   471.398499     0.000000 
  59.995000   446.000000     0.002242   471.409384     0.000000 
  60.003000   423.000000     0.002364   471.420537     0.000000 
  60.011000   461.000000     0.002169   471.431964     0.000000 
  60.019000   440.000000     0.002273   471.443667     0.000000 
  60.027000   466.000000     0.002146   471.455650     0.000000 
  60.035000   493.000000     0.002028   471.467919     0.000000 
  60.043000   443.000000     0.002257   471.480478     0.000000 
  60.051000   458.000000     0.002183   471.493332     0.000000 
  60.059000   475.000000     0.002105   471.506484     0.000000 
  60.067000   486.000000     0.002058   471.519941     0.000000 
  60.075000   491.000000     0.002037   471.533707     0.000000 
  60.083000   467.000000     0.002141   471.547787     0.000000 
  60.091000   462.000000     0.002165   471.562187     0.000000 
  60.099000   440.000000     0.002273   471.576912     0.000000 
  60.107000   423.000000     0.002364   471.591969     0.000000 
  60.115000   448.000000     0.002232   471.607362     0.000000 
  60.123000   399.000000     0.002506   471.623098     0.000000 
  60.131000   416.000000     0.002404   471.639183     0.000000 
  60.139000   435.000000     0.002299   471.655623     0.000000 
  60.147000   449.000000     0.002227   471.672424     0.000000 
  60.155000   449.000000     0.002227   471.689594     0.000000 
  60.163000   474.000000     0.002110   471.707140     0.000000 
  60.171000   530.000000     0.001887   471.725068     0.000000 
  60.179000   466.000000     0.002146   471.743385     0.000000 
  60.187000   480.000000     0.002083   471.762099     0.000000 
  60.195000   515.000000     0.001942   471.781219     0.000000 
  60.203000   422.000000     0.002370   471.800750     0.000000 
  60.211000   442.000000     0.002262   471.820703     0.000000 
  60.219000   441.000000     0.002268   471.841084     0.000000 
  60.227000   446.000000     0.002242   471.861903     0.000000 
  60.235000   450.000000     0.002222   471.883169     0.000000 
  60.243000   417.000000     0.002398   471.904890     0.000000 
  60.251000   429.000000     0.002331   471.927075     0.000000 
  60.259000   448.000000     0.002232   471.949735     0.000000 
  60.267000   470.000000     0.002128   471.972879     0.000000 
  60.275000   501.000000     0.001996   471.996517     0.000000 
  60.283000   496.000000     0.002016   472.020660     0.000000 
  60.291000   472.000000     0.002119   472.045318     0.000000 
  60.299000   462.000000     0.002165   472.070502     0.000000 
  60.307000   475.000000     0.002105   472.096224     0.000000 
  60.315000   483.000000     0.002070   472.122495     0.000000 
  60.323000   448.000000     0.002232   472.149327     0.000000 
  60.331000   417.000000     0.002398   472.176733     0.000000 
  60.339000   403.000000     0.002481   472.204725     0.000000 
  60.347000   475.000000     0.002105   472.233316     0.000000 
  60.355000   450.000000     0.002222   472.262520     0.000000 
  60.363000   450.000000     0.002222   472.292351     0.000000 
  60.371000   459.000000     0.002179   472.322822     0.000000 
  60.379000   459.000000     0.002179   472.353949     0.000000 
  60.387000   525.000000     0.001905   472.385747     0.000000 
  60.395000   479.000000     0.002088   472.418230     0.000000 
  60.403000   503.000000     0.001988   472.451416     0.000000 
  60.411000   468.000000     0.002137   472.485320     0.000000 
  60.419000   436.000000     0.002294   472.519960     0.000000 
  60.427000   466.000000     0.002146   472.555354     0.000000 
  60.435000   437.000000     0.002288   472.591518     0.000000 
  60.443000   410.000000     0.002439   472.628473     0.000000 
  60.451000   439.000000     0.002278   472.666237     0.000000 
  60.459000   459.000000     0.002179   472.656682     0.000000 
  60.467000   418.000000     0.002392   472.696570     0.000000 
  60.475000   404.000000     0.002475   472.737323     0.000000 
  60.483000   446.000000     0.002242   472.778963     0.000000 
  60.491000   465.000000     0.002151   472.821511     0.000000 
  60.499000   495.000000     0.002020   472.864991     0.000000 
  60.507000   477.000000     0.002096   472.909428     0.000000 
  60.515000   453.000000     0.002208   472.954846     0.000000 
  60.523000   457.000000     0.002188   473.001271     0.000000 
  60.531000   484.000000     0.002066   473.048729     0.000000 
  60.539000   452.000000     0.002212   473.097248     0.000000 
  60.547000   448.000000     0.002232   473.146856     0.000000 
  60.555000   437.000000     0.002288   473.197583     0.000000 
  60.563000   442.000000     0.002262   473.249457     0.000000 
  60.571000   452.000000     0.002212   473.302512     0.000000 
  60.579000   488.000000     0.002049   473.356778     0.000000 
  60.587000   500.000000     0.002000   473.412290     0.000000 
  60.595000   481.000000     0.002079   473.469082     0.000000 
  60.603000   473.000000     0.002114   473.527189     0.000000 
  60.611000   487.000000     0.002053   473.586650     0.000000 
  60.619000   464.000000     0.002155   473.647502     0.000000 
  60.627000   467.000000     0.002141   473.709784     0.000000 
  60.635000   493.000000     0.002028   473.773539     0.000000 
  60.643000   497.000000     0.002012   473.838809     0.000000 
  60.651000   440.000000     0.002273   473.905637     0.000000 
  60.659000   432.000000     0.002315   473.974070     0.000000 
  60.667000   469.000000     0.002132   474.044156     0.000000 
  60.675000   474.000000     0.002110   474.115943     0.000000 
  60.683000   476.000000     0.002101   474.189482     0.000000 
  60.691000   440.000000     0.002273   474.264828     0.000000 
  60.699000   432.000000     0.002315   474.342034     0.000000 
  60.707000   439.000000     0.002278   474.421158     0.000000 
  60.715000   435.000000     0.002299   474.502259     0.000000 
  60.723000   462.000000     0.002165   474.585399     0.000000 
  60.731000   467.000000     0.002141   474.670642     0.000000 
  60.739000   437.000000     0.002288   474.758056     0.000000 
  60.747000   453.000000     0.002208   474.847708     0.000000 
  60.755000   450.000000     0.002222   474.939672     0.000000 
  60.763000   473.000000     0.002114   475.034022     0.000000 
  60.771000   460.000000     0.002174   475.130836     0.000000 
  60.779000   417.000000     0.002398   475.230196     0.000000 
  60.787000   478.000000     0.002092   475.332186     0.000000 
  60.795000   457.000000     0.002188   475.436894     0.000000 
  60.803000   407.000000     0.002457   475.544414     0.000000 
  60.811000   437.000000     0.002288   475.654839     0.000000 
  60.819000   467.000000     0.002141   475.768271     0.000000 
  60.827000   458.000000     0.002183   475.884814     0.000000 
  60.835000   452.000000     0.002212   476.004576     0.000000 
  60.843000   451.000000     0.002217   476.127671     0.000000 
  60.851000   439.000000     0.002278   476.254218     0.000000 
  60.859000   452.000000     0.002212   476.384342     0.000000 
  60.867000   454.000000     0.002203   476.518170     0.000000 
  60.875000   457.000000     0.002188   476.655840     0.000000 
  60.883000   483.000000     0.002070   476.797492     0.000000 
  60.891000   454.000000     0.002203   476.943276     0.000000 
  60.899000   485.000000     0.002062   477.093347     0.000000 
  60.907000   487.000000     0.002053   477.247867     0.000000 
  60.915000   491.000000     0.002037   477.407007     0.000000 
  60.923000   454.000000     0.002203   477.570945     0.000000 
  60.931000   474.000000     0.002110   477.739870     0.000000 
  60.939000   485.000000     0.002062   477.913977     0.000000 
  60.947000   477.000000     0.002096   478.093473     0.000000 
  60.955000   488.000000     0.002049   478.278575     0.000000 
  60.963000   501.000000     0.001996   478.469511     0.000000 
  60.971000   529.000000     0.001890   478.666520     0.000000 
  60.979000   509.000000     0.001965   478.869853     0.000000 
  60.987000   472.000000     0.002119   479.079777     0.000000 
  60.995000   421.000000     0.002375   479.296570     0.000000 
  61.003000   444.000000     0.002252   479.520525     0.000000 
  61.011000   460.000000     0.002174   479.751953     0.000000 
  61.019000   466.000000     0.002146   479.991180     0.000000 
  61.027000   482.000000     0.002075   480.238550     0.000000 
  61.035000   463.000000     0.002160   480.494428     0.000000 
  61.043000   430.000000     0.002326   480.759198     0.000000 
  61.051000   428.000000     0.002336   481.033265     0.000000 
  61.059000   435.000000     0.002299   481.317060     0.000000 
  61.067000   424.000000     0.002358   481.611036     0.000000 
  61.075000   449.000000     0.002227   481.915677     0.000000 
  61.083000   491.000000     0.002037   482.231490     0.000000 
  61.091000   488.000000     0.002049   482.559018     0.000000 
  61.099000   501.000000     0.001996   482.898834     0.000000 
  61.107000   490.000000     0.002041   483.251547     0.000000 
  61.115000   513.000000     0.001949   483.617805     0.000000 
  61.123000   437.000000     0.002288   483.998297     0.000000 
  61.131000   436.000000     0.002294   484.393756     0.000000 
  61.139000   380.000000     0.002632   484.804960     0.000000 
  61.147000   467.000000     0.002141   485.232743     0.000000 
  61.155000   483.000000     0.002070   485.677991     0.000000 
  61.163000   524.000000     0.001908   486.141652     0.000000 
  61.171000   500.000000     0.002000   486.624736     0.000000 
  61.179000   476.000000     0.002101   487.128326     0.000000 
  61.187000   487.000000     0.002053   487.653580     0.000000 
  61.195000   468.000000     0.002137   488.201740     0.000000 
  61.203000   494.000000     0.002024   488.774134     0.000000 
  61.211000   503.000000     0.001988   489.372192     0.000000 
  61.219000   470.000000     0.002128   489.997448     0.000000 
  61.227000   467.000000     0.002141   490.651551     0.000000 
  61.235000   508.000000     0.001969   491.336280     0.000000 
  61.243000   521.000000     0.001919   492.053548     0.000000 
  61.251000   451.000000     0.002217   492.805422     0.000000 
  61.259000   431.000000     0.002320   493.594135     0.000000 
  61.267000   482.000000     0.002075   494.422099     0.000000 
  61.275000   489.000000     0.002045   495.291930     0.000000 
  61.283000   490.000000     0.002041   496.206461     0.000000 
  61.291000   502.000000     0.001992   497.168769     0.000000 
  61.299000   496.000000     0.002016   498.182197     0.000000 
  61.307000   551.000000     0.001815   499.250386     0.000000 
  61.315000   430.000000     0.002326   500.377303     0.000000 
  61.323000   551.000000     0.001815   501.567281     0.000000 
  61.331000   477.000000     0.002096   502.825053     0.000000 
  61.339000   461.000000     0.002169   504.155804     0.000000 
  61.347000   469.000000     0.002132   505.565220     0.000000 
  61.355000   507.000000     0.001972   507.059548     0.000000 
  61.363000   500.000000     0.002000   508.645660     0.000000 
  61.371000   483.000000     0.002070   510.331134     0.000000 
  61.379000   507.000000     0.001972   512.124337     0.000000 
  61.387000   533.000000     0.001876   514.034528     0.000000 
  61.395000   515.000000     0.001942   516.071971     0.000000 
  61.403000   487.000000     0.002053   518.248072     0.000000 
  61.411000   502.000000     0.001992   520.575526     0.000000 
  61.419000   570.000000     0.001754   523.068498     0.000000 
  61.427000   577.000000     0.001733   525.742830     0.000000 
  61.435000   524.000000     0.001908   528.616280     0.000000 
  61.443000   550.000000     0.001818   531.708809     0.000000 
  61.451000   559.000000     0.001789   535.042897     0.000000 
  61.459000   547.000000     0.001828   538.643950     0.000000 
  61.467000   544.000000     0.001838   542.540762     0.000000 
  61.475000   552.000000     0.001812   546.766069     0.000000 
  61.483000   555.000000     0.001802   551.357238     0.000000 
  61.491000   518.000000     0.001931   556.357114     0.000000 
  61.499000   549.000000     0.001821   561.815103     0.000000 
  61.507000   646.000000     0.001548   567.788591     0.000000 
  61.515000   593.000000     0.001686   574.344853     0.000000 
  61.523000   542.000000     0.001845   581.563723     0.000000 
  61.531000   611.000000     0.001637   589.541359     0.000000 
  61.539000   641.000000     0.001560   598.395661     0.000000 
  61.547000   669.000000     0.001495   608.274045     0.000000 
  61.555000   608.000000     0.001645   619.364493     0.000000 
  61.563000   642.000000     0.001558   631.910939     0.000000 
  61.571000   668.000000     0.001497   646.234073     0.000000 
  61.579000   673.000000     0.001486   662.758395     0.000000 
  61.587000   666.000000     0.001502   682.045714     0.000000 
  61.595000   706.000000     0.001416   704.834135     0.000000 
  61.603000   799.000000     0.001252   732.079807     0.000000 
  61.611000   858.000000     0.001166   764.996482     0.000000 
  61.619000   894.000000     0.001119   805.085492     0.000000 
  61.627000   905.000000     0.001105   854.146569     0.000000 
  61.635000   992.000000     0.001008   914.258799     0.000000 
  61.643000  1068.000000     0.000936   987.721319     0.000000 
  61.651000  1121.000000     0.000892  1076.945543     0.000000 
  61.659000  1309.000000     0.000764  1184.293716     0.000000 
  61.667000  1492.000000     0.000670  1311.860484     0.000000 
  61.675000  1579.000000     0.000633  1461.190709     0.000000 
  61.683000  1809.000000     0.000553  1632.913335     0.000000 
  61.691000  2082.000000     0.000480  1826.244403     0.000000 
  61.699000  2337.000000     0.000428  2038.280995     0.000000 
  61.707000  2622.000000     0.000381  2263.009553     0.000000 
  61.715000  2923.000000     0.000342  2490.077253     0.000000 
  61.723000  3269.000000     0.000306  2703.755607     0.000000 
  61.731000  3677.000000     0.000272  2883.170419     0.000000 
  61.739000  3872.000000     0.000258  3005.274246     0.000000 
  61.747000  4099.000000     0.000244  3051.050524     0.000000 
  61.755000  4172.000000     0.000240  3012.609861     0.000000 
  61.763000  3944.000000     0.000254  2896.606016     0.000000 
  61.771000  3575.000000     0.000280  2721.336355     0.000000 
  61.779000  3138.000000     0.000319  2509.779719     0.000000 
  61.787000  2702.000000     0.000370  2283.171354     0.000000 
  61.795000  2382.000000     0.000420  2057.734141     0.000000 
  61.803000  2100.000000     0.000476  1844.264302     0.000000 
  61.811000  1809.000000     0.000553  1649.108766     0.000000 
  61.819000  1558.000000     0.000642  1475.401846     0.000000 
  61.827000  1403.000000     0.000713  1324.083220     0.000000 
  61.835000  1270.000000     0.000787  1194.626781     0.000000 
  61.843000  1154.000000     0.000867  1085.552644     0.000000 
  61.851000  1076.000000     0.000929   994.802513     0.000000 
  61.859000   878.000000     0.001139   920.028212     0.000000 
  61.867000   919.000000     0.001088   858.815381     0.000000 
  61.875000   907.000000     0.001103   808.849838     0.000000 
  61.883000   881.000000     0.001135   768.029958     0.000000 
  61.891000   821.000000     0.001218   734.529964     0.000000 
  61.899000   736.000000     0.001359   706.822158     0.000000 
  61.907000   781.000000     0.001280   683.668299     0.000000 
  61.915000   725.000000     0.001379   664.090918     0.000000 
  61.923000   718.000000     0.001393   647.334273     0.000000 
  61.931000   630.000000     0.001587   632.822562     0.000000 
  61.939000   644.000000     0.001553   620.120552     0.000000 
  61.947000   647.000000     0.001546   608.899535     0.000000 
  61.955000   647.000000     0.001546   598.909696     0.000000 
  61.963000   680.000000     0.001471   589.958782     0.000000 
  61.971000   653.000000     0.001531   581.896282     0.000000 
  61.979000   612.000000     0.001634   574.602030     0.000000 
  61.987000   630.000000     0.001587   567.978189     0.000000 
  61.995000   641.000000     0.001560   561.943650     0.000000 
  62.003000   633.000000     0.001580   556.430142     0.000000 
  62.011000   596.000000     0.001678   551.379490     0.000000 
  62.019000   595.000000     0.001681   546.741644     0.000000 
  62.027000   637.000000     0.001570   542.473224     0.000000 
  62.035000   628.000000     0.001592   538.536415     0.000000 
  62.043000   522.000000     0.001916   534.898098     0.000000 
  62.051000   528.000000     0.001894   531.529156     0.000000 
  62.059000   579.000000     0.001727   528.403901     0.000000 
  62.067000   536.000000     0.001866   525.499612     0.000000 
  62.075000   520.000000     0.001923   522.860602     0.000000 
  62.083000   509.000000     0.001965   520.340538     0.000000 
  62.091000   494.000000     0.002024   517.987335     0.000000 
  62.099000   563.000000     0.001776   515.786686     0.000000 
  62.107000   581.000000     0.001721   513.725774     0.000000 
  62.115000   565.000000     0.001770   513.064318     0.000000 
  62.123000   543.000000     0.001842   511.260868     0.000000 
  62.131000   528.000000     0.001894   509.566093     0.000000 
  62.139000   475.000000     0.002105   507.971553     0.000000 
  62.147000   517.000000     0.001934   506.469607     0.000000 
  62.155000   538.000000     0.001859   505.053327     0.000000 
  62.163000   479.000000     0.002088   503.716416     0.000000 
  62.171000   470.000000     0.002128   502.453145     0.000000 
  62.179000   486.000000     0.002058   501.258290     0.000000 
  62.187000   494.000000     0.002024   500.127081     0.000000 
  62.195000   502.000000     0.001992   499.055157     0.000000 
  62.203000   471.000000     0.002123   498.038523     0.000000 
  62.211000   491.000000     0.002037   497.073514     0.000000 
  62.219000   520.000000     0.001923   496.156765     0.000000 
  62.227000   473.000000     0.002114   495.285180     0.000000 
  62.235000   503.000000     0.001988   494.455910     0.000000 
  62.243000   463.000000     0.002160   493.666325     0.000000 
  62.251000   451.000000     0.002217   492.913998     0.000000 
  62.259000   483.000000     0.002070   492.196687     0.000000 
  62.267000   469.000000     0.002132   491.512313     0.000000 
  62.275000   450.000000     0.002222   490.858955     0.000000 
  62.283000   461.000000     0.002169   490.234829     0.000000 
  62.291000   476.000000     0.002101   489.638276     0.000000 
  62.299000   493.000000     0.002028   489.067759     0.000000 
  62.307000   511.000000     0.001957   488.521845     0.000000 
  62.315000   490.000000     0.002041   487.999200     0.000000 
  62.323000   480.000000     0.002083   487.498580     0.000000 
  62.331000   500.000000     0.002000   487.018826     0.000000 
  62.339000   497.000000     0.002012   486.558854     0.000000 
  62.347000   489.000000     0.002045   486.117651     0.000000 
  62.355000   500.000000     0.002000   485.694272     0.000000 
  62.363000   513.000000     0.001949   485.287829     0.000000 
  62.371000   518.000000     0.001931   484.897493     0.000000 
  62.379000   478.000000     0.002092   484.522483     0.000000 
  62.387000   461.000000     0.002169   484.162070     0.000000 
  62.395000   481.000000     0.002079   483.815568     0.000000 
  62.403000   527.000000     0.001898   483.482333     0.000000 
  62.411000   509.000000     0.001965   483.161757     0.000000 
  62.419000   450.000000     0.002222   482.853272     0.000000 
  62.427000   442.000000     0.002262   482.556340     0.000000 
  62.435000   490.000000     0.002041   482.270456     0.000000 
  62.443000   532.000000     0.001880   481.995144     0.000000 
  62.451000   477.000000     0.002096   481.729954     0.000000 
  62.459000   455.000000     0.002198   481.474462     0.000000 
  62.467000   453.000000     0.002208   481.228269     0.000000 
  62.475000   447.000000     0.002237   480.990996     0.000000 
  62.483000   479.000000     0.002088   480.762287     0.000000 
  62.491000   491.000000     0.002037   480.541804     0.000000 
  62.499000   491.000000     0.002037   480.329227     0.000000 
  62.507000   437.000000     0.002288   480.124256     0.000000 
  62.515000   446.000000     0.002242   479.926604     0.000000 
  62.523000   475.000000     0.002105   479.736000     0.000000 
  62.531000   474.000000     0.002110   479.552189     0.000000 
  62.539000   456.000000     0.002193   479.374928     0.000000 
  62.547000   460.000000     0.002174   479.203988     0.000000 
  62.555000   481.000000     0.002079   479.039149     0.000000 
  62.563000   460.000000     0.002174   478.880207     0.000000 
  62.571000   455.000000     0.002198   478.726965     0.000000 
  62.579000   439.000000     0.002278   478.579238     0.000000 
  62.587000   483.000000     0.002070   478.436849     0.000000 
  62.595000   516.000000     0.001938   478.299633     0.000000 
  62.603000   479.000000     0.002088   478.167431     0.000000 
  62.611000   464.000000     0.002155   478.040094     0.000000 
  62.619000   437.000000     0.002288   477.917478     0.000000 
  62.627000   480.000000     0.002083   477.799450     0.000000 
  62.635000   479.000000     0.002088   477.685882     0.000000 
  62.643000   450.000000     0.002222   477.576654     0.000000 
  62.651000   498.000000     0.002008   477.471650     0.000000 
  62.659000   467.000000     0.002141   477.370763     0.000000 
  62.667000   441.000000     0.002268   477.273890     0.000000 
  62.675000   469.000000     0.002132   477.180935     0.000000 
  62.683000   490.000000     0.002041   477.091806     0.000000 
  62.691000   507.000000     0.001972   477.006417     0.000000 
  62.699000   505.000000     0.001980   476.924686     0.000000 
  62.707000   481.000000     0.002079   476.846538     0.000000 
  62.715000   497.000000     0.002012   476.771900     0.000000 
  62.723000   489.000000     0.002045   476.700706     0.000000 
  62.731000   481.000000     0.002079   476.632891     0.000000 
  62.739000   503.000000     0.001988   476.568396     0.000000 
  62.747000   470.000000     0.002128   476.507168     0.000000 
  62.755000   467.000000     0.002141   476.449154     0.000000 
  62.763000   474.000000     0.002110   476.394307     0.000000 
  62.771000   483.000000     0.002070   476.342583     0.000000 
  62.779000   464.000000     0.002155   476.293943     0.000000 
  62.787000   458.000000     0.002183   476.248349     0.000000 
  62.795000   490.000000     0.002041   476.205768     0.000000 
  62.803000   425.000000     0.002353   476.166172     0.000000 
  62.811000   496.000000     0.002016   476.129532     0.000000 
  62.819000   452.000000     0.002212   476.095825     0.000000 
  62.827000   451.000000     0.002217   476.065033     0.000000 
  62.835000   480.000000     0.002083   476.037136     0.000000 
  62.843000   479.000000     0.002088   476.012123     0.000000 
  62.851000   475.000000     0.002105   475.989982     0.000000 
  62.859000   484.000000     0.002066   475.980525     0.000000 
  62.867000   462.000000     0.002165   475.964195     0.000000 
  62.875000   452.000000     0.002212   475.950725     0.000000 
  62.883000   462.000000     0.002165   475.940117     0.000000 
  62.891000   456.000000     0.002193   475.932374     0.000000 
  62.899000   435.000000     0.002299   475.927506     0.000000 
  62.907000   426.000000     0.002347   475.925524     0.000000 
  62.915000   424.000000     0.002358   475.926440     0.000000 
  62.923000   441.000000     0.002268   475.930274     0.000000 
  62.931000   468.000000     0.002137   475.937046     0.000000 
  62.939000   475.000000     0.002105   475.946781     0.000000 
  62.947000   482.000000     0.002075   475.959504     0.000000 
  62.955000   524.000000     0.001908   475.975249     0.000000 
  62.963000   497.000000     0.002012   475.994049     0.000000 
  62.971000   468.000000     0.002137   476.015943     0.000000 
  62.979000   468.000000     0.002137   476.040973     0.000000 
  62.987000   509.000000     0.001965   476.069184     0.000000 
  62.995000   504.000000     0.001984   476.100628     0.000000 
  63.003000   465.000000     0.002151   476.135357     0.000000 
  63.011000   434.000000     0.002304   476.173430     0.000000 
  63.019000   466.000000     0.002146   476.214910     0.000000 
  63.027000   469.000000     0.002132   476.259865     0.000000 
  63.035000   491.000000     0.002037   476.308366     0.000000 
  63.043000   471.000000     0.002123   476.360491     0.000000 
  63.051000   484.000000     0.002066   476.416322     0.000000 
  63.059000   512.000000     0.001953   476.475947     0.000000 
  63.067000   502.000000     0.001992   476.539460     0.000000 
  63.075000   499.000000     0.002004   476.606959     0.000000 
  63.083000   499.000000     0.002004   476.678552     0.000000 
  63.091000   499.000000     0.002004   476.754349     0.000000 
  63.099000   491.000000     0.002037   476.834470     0.000000 
  63.107000   479.000000     0.002088   476.919043     0.000000 
  63.115000   478.000000     0.002092   477.008199     0.000000 
  63.123000   458.000000     0.002183   477.102083     0.000000 
  63.131000   425.000000     0.002353   477.200844     0.000000 
  63.139000   455.000000     0.002198   477.304642     0.000000 
  63.147000   478.000000     0.002092   477.413646     0.000000 
  63.155000   448.000000     0.002232   477.528035     0.000000 
  63.163000   426.000000     0.002347   477.647999     0.000000 
  63.171000   419.000000     0.002387   477.773740     0.000000 
  63.179000   491.000000     0.002037   477.905469     0.000000 
  63.187000   468.000000     0.002137   478.043414     0.000000 
  63.195000   473.000000     0.002114   478.187813     0.000000 
  63.203000   484.000000     0.002066   478.338920     0.000000 
  63.211000   455.000000     0.002198   478.497005     0.000000 
  63.219000   440.000000     0.002273   478.662352     0.000000 
  63.227000   445.000000     0.002247   478.835266     0.000000 
  63.235000   431.000000     0.002320   479.016068     0.000000 
  63.243000   403.000000     0.002481   479.205100     0.000000 
  63.251000   416.000000     0.002404   479.402726     0.000000 
  63.259000   444.000000     0.002252   479.609330     0.000000 
  63.267000   457.000000     0.002188   479.825325     0.000000 
  63.275000   460.000000     0.002174   480.051147     0.000000 
  63.283000   473.000000     0.002114   480.287263     0.000000 
  63.291000   472.000000     0.002119   480.534167     0.000000 
  63.299000   466.000000     0.002146   480.792390     0.000000 
  63.307000   483.000000     0.002070   481.062496     0.000000 
  63.315000   474.000000     0.002110   481.345087     0.000000 
  63.323000   495.000000     0.002020   481.640807     0.000000 
  63.331000   525.000000     0.001905   481.950344     0.000000 
  63.339000   459.000000     0.002179   482.274436     0.000000 
  63.347000   471.000000     0.002123   482.613871     0.000000 
  63.355000   457.000000     0.002188   482.969495     0.000000 
  63.363000   464.000000     0.002155   483.342214     0.000000 
  63.371000   495.000000     0.002020   483.733002     0.000000 
  63.379000   555.000000     0.001802   484.142907     0.000000 
  63.387000   464.000000     0.002155   484.573054     0.000000 
  63.395000   495.000000     0.002020   485.024655     0.000000 
  63.403000   507.000000     0.001972   485.499016     0.000000 
  63.411000   488.000000     0.002049   485.997549     0.000000 
  63.419000   506.000000     0.001976   486.521778     0.000000 
  63.427000   521.000000     0.001919   487.073350     0.000000 
  63.435000   496.000000     0.002016   487.654046     0.000000 
  63.443000   499.000000     0.002004   488.265800     0.000000 
  63.451000   491.000000     0.002037   488.910709     0.000000 
  63.459000   470.000000     0.002128   489.591054     0.000000 
  63.467000   456.000000     0.002193   490.309315     0.000000 
  63.475000   477.000000     0.002096   491.068195     0.000000 
  63.483000   483.000000     0.002070   491.870645     0.000000 
  63.491000   485.000000     0.002062   492.719888     0.000000 
  63.499000   501.000000     0.001996   493.619452     0.000000 
  63.507000   457.000000     0.002188   494.573205     0.000000 
  63.515000   475.000000     0.002105   493.635468     0.000000 
  63.523000   479.000000     0.002088   494.728274     0.000000 
  63.531000   475.000000     0.002105   495.889096     0.000000 
  63.539000   449.000000     0.002227   497.123620     0.000000 
  63.547000   479.000000     0.002088   498.438129     0.000000 
  63.555000   459.000000     0.002179   499.839586     0.000000 
  63.563000   495.000000     0.002020   501.335722     0.000000 
  63.571000   484.000000     0.002066   502.935136     0.000000 
  63.579000   508.000000     0.001969   504.647416     0.000000 
  63.587000   496.000000     0.002016   506.483275     0.000000 
  63.595000   469.000000     0.002132   508.454714     0.000000 
  63.603000   471.000000     0.002123   510.575214     0.000000 
  63.611000   483.000000     0.002070   512.859947     0.000000 
  63.619000   504.000000     0.001984   515.326056     0.000000 
  63.627000   528.000000     0.001894   517.992960     0.000000 
  63.635000   542.000000     0.001845   520.882748     0.000000 
  63.643000   538.000000     0.001859   524.020649     0.000000 
  63.651000   508.000000     0.001969   527.435641     0.000000 
  63.659000   507.000000     0.001972   531.161214     0.000000 
  63.667000   524.000000     0.001908   535.236397     0.000000 
  63.675000   528.000000     0.001894   539.707123     0.000000 
  63.683000   547.000000     0.001828   544.628102     0.000000 
  63.691000   548.000000     0.001825   550.065407     0.000000 
  63.699000   568.000000     0.001761   556.100069     0.000000 
  63.707000   521.000000     0.001919   562.833029     0.000000 
  63.715000   542.000000     0.001845   570.391913     0.000000 
  63.723000   577.000000     0.001733   578.940101     0.000000 
  63.731000   610.000000     0.001639   588.688567     0.000000 
  63.739000   508.000000     0.001969   599.910813     0.000000 
  63.747000   602.000000     0.001661   612.960913     0.000000 
  63.755000   603.000000     0.001658   628.294148     0.000000 
  63.763000   606.000000     0.001650   646.488896     0.000000 
  63.771000   674.000000     0.001484   668.267410     0.000000 
  63.779000   689.000000     0.001451   694.511931     0.000000 
  63.787000   730.000000     0.001370   726.271343     0.000000 
  63.795000   764.000000     0.001309   764.752636     0.000000 
  63.803000   773.000000     0.001294   811.290833     0.000000 
  63.811000   804.000000     0.001244   867.290932     0.000000 
  63.819000   896.000000     0.001116   934.135846     0.000000 
  63.827000  1024.000000     0.000977  1013.055031     0.000000 
  63.835000  1172.000000     0.000853  1104.950305     0.000000 
  63.843000  1289.000000     0.000776  1210.179054     0.000000 
  63.851000  1448.000000     0.000691  1328.300501     0.000000 
  63.859000  1647.000000     0.000607  1457.790557     0.000000 
  63.867000  1860.000000     0.000538  1595.705931     0.000000 
  63.875000  2113.000000     0.000473  1737.233436     0.000000 
  63.883000  2391.000000     0.000418  1875.092756     0.000000 
  63.891000  2698.000000     0.000371  1999.047012     0.000000 
  63.899000  3020.000000     0.000331  2096.282686     0.000000 
  63.907000  3373.000000     0.000296  2153.592913     0.000000 
  63.915000  3618.000000     0.000276  2161.353406     0.000000 
  63.923000  3555.000000     0.000281  2117.418169     0.000000 
  63.931000  3470.000000     0.000288  2028.234294     0.000000 
  63.939000  3117.000000     0.000321  1906.291913     0.000000 
  63.947000  2427.000000     0.000412  1765.805836     0.000000 
  63.955000  2084.000000     0.000480  1619.234502     0.000000 
  63.963000  1671.000000     0.000598  1475.756558     0.000000 
  63.971000  1366.000000     0.000732  1341.284752     0.000000 
  63.979000  1179.000000     0.000848  1219.148937     0.000000 
  63.987000  1068.000000     0.000936  1110.852524     0.000000 
  63.995000   944.000000     0.001059  1016.672835     0.000000 
  64.003000   915.000000     0.001093   936.084874     0.000000 
  64.011000   827.000000     0.001209   868.055839     0.000000 
  64.019000   786.000000     0.001272   811.257800     0.000000 
  64.027000   774.000000     0.001292   764.228028     0.000000 
  64.035000   734.000000     0.001362   725.490911     0.000000 
  64.043000   700.000000     0.001429   693.646985     0.000000 
  64.051000   684.000000     0.001462   667.431935     0.000000 
  64.059000   682.000000     0.001466   645.748862     0.000000 
  64.067000   653.000000     0.001531   627.678374     0.000000 
  64.075000   634.000000     0.001577   612.472150     0.000000 
  64.083000   623.000000     0.001605   599.535752     0.000000 
  64.091000   594.000000     0.001684   588.405910     0.000000 
  64.099000   537.000000     0.001862   578.726365     0.000000 
  64.107000   568.000000     0.001761   570.225098     0.000000 
  64.115000   601.000000     0.001664   562.694518     0.000000 
  64.123000   705.000000     0.001418   555.975265     0.000000 
  64.131000   604.000000     0.001656   549.943575     0.000000 
  64.139000   581.000000     0.001721   544.501802     0.000000 
  64.147000   586.000000     0.001706   539.571504     0.000000 
  64.155000   620.000000     0.001613   535.088513     0.000000 
  64.163000   553.000000     0.001808   530.999449     0.000000 
  64.171000   572.000000     0.001748   527.259266     0.000000 
  64.179000   544.000000     0.001838   523.829501     0.000000 
  64.187000   511.000000     0.001957   520.677011     0.000000 
  64.195000   517.000000     0.001934   517.773024     0.000000 
  64.203000   494.000000     0.002024   515.092427     0.000000 
  64.211000   523.000000     0.001912   512.613196     0.000000 
  64.219000   505.000000     0.001980   510.315946     0.000000 
  64.227000   458.000000     0.002183   508.183553     0.000000 
  64.235000   489.000000     0.002045   506.200857     0.000000 
  64.243000   509.000000     0.001965   504.354384     0.000000 
  64.251000   492.000000     0.002033   502.632141     0.000000 
  64.259000   495.000000     0.002020   501.023424     0.000000 
  64.267000   483.000000     0.002070   499.518658     0.000000 
  64.275000   537.000000     0.001862   498.109260     0.000000 
  64.283000   490.000000     0.002041   496.787518     0.000000 
  64.291000   485.000000     0.002062   495.546495     0.000000 
  64.299000   464.000000     0.002155   494.379935     0.000000 
  64.307000   449.000000     0.002227   493.282190     0.000000 
  64.315000   507.000000     0.001972   492.248151     0.000000 
  64.323000   474.000000     0.002110   491.273191     0.000000 
  64.331000   489.000000     0.002045   490.353115     0.000000 
  64.339000   454.000000     0.002203   489.484115     0.000000 
  64.347000   428.000000     0.002336   488.662731     0.000000 
  64.355000   468.000000     0.002137   487.885822     0.000000 
  64.363000   498.000000     0.002008   487.150528     0.000000 
  64.371000   499.000000     0.002004   486.454253     0.000000 
  64.379000   495.000000     0.002020   485.794636     0.000000 
  64.387000   492.000000     0.002033   485.169540     0.000000 
  64.395000   491.000000     0.002037   484.577025     0.000000 
  64.403000   496.000000     0.002016   484.015346     0.000000 
  64.411000   496.000000     0.002016   483.482935     0.000000 
  64.419000   499.000000     0.002004   482.978395     0.000000 
  64.427000   506.000000     0.001976   482.500496     0.000000 
  64.435000   501.000000     0.001996   482.048175     0.000000 
  64.443000   489.000000     0.002045   481.620540     0.000000 
  64.451000   479.000000     0.002088   481.216882     0.000000 
  64.459000   515.000000     0.001942   481.393488     0.000000 
  64.467000   497.000000     0.002012   481.041409     0.000000 
  64.475000   488.000000     0.002049   480.712619     0.000000 
  64.483000   466.000000     0.002146   480.407497     0.000000 
  64.491000   506.000000     0.001976   480.126878     0.000000 
  64.499000   474.000000     0.002110   479.872173     0.000000 
  64.507000   448.000000     0.002232   479.645518     0.000000 
  64.515000   517.000000     0.001934   479.449941     0.000000 
  64.523000   488.000000     0.002049   479.289531     0.000000 
  64.531000   517.000000     0.001934   479.169590     0.000000 
  64.539000   479.000000     0.002088   479.096733     0.000000 
  64.547000   457.000000     0.002188   479.078896     0.000000 
  64.555000   458.000000     0.002183   479.125206     0.000000 
  64.563000   506.000000     0.001976   479.245687     0.000000 
  64.571000   475.000000     0.002105   479.450756     0.000000 
  64.579000   464.000000     0.002155   479.750499     0.000000 
  64.587000   458.000000     0.002183   480.153697     0.000000 
  64.595000   466.000000     0.002146   480.666545     0.000000 
  64.603000   469.000000     0.002132   481.290939     0.000000 
  64.611000   465.000000     0.002151   482.022043     0.000000 
  64.619000   494.000000     0.002024   482.844781     0.000000 
  64.627000   493.000000     0.002028   483.728937     0.000000 
  64.635000   473.000000     0.002114   484.623321     0.000000 
  64.643000   484.000000     0.002066   485.451371     0.000000 
  64.651000   467.000000     0.002141   486.113407     0.000000 
  64.659000   530.000000     0.001887   486.502002     0.000000 
  64.667000   532.000000     0.001880   486.531436     0.000000 
  64.675000   515.000000     0.001942   486.169400     0.000000 
  64.683000   494.000000     0.002024   485.450603     0.000000 
  64.691000   483.000000     0.002070   484.462015     0.000000 
  64.699000   468.000000     0.002137   483.310846     0.000000 
  64.707000   491.000000     0.002037   482.095551     0.000000 
  64.715000   463.000000     0.002160   480.891129     0.000000 
  64.723000   516.000000     0.001938   479.747299     0.000000 
  64.731000   511.000000     0.001957   478.693048     0.000000 
  64.739000   511.000000     0.001957   477.742457     0.000000 
  64.747000   469.000000     0.002132   476.899533     0.000000 
  64.755000   473.000000     0.002114   476.161669     0.000000 
  64.763000   489.000000     0.002045   475.522029     0.000000 
  64.771000   505.000000     0.001980   474.971236     0.000000 
  64.779000   490.000000     0.002041   474.498642     0.000000 
  64.787000   487.000000     0.002053   474.093280     0.000000 
  64.795000   490.000000     0.002041   473.744581     0.000000 
  64.803000   479.000000     0.002088   473.442861     0.000000 
  64.811000   489.000000     0.002045   473.179612     0.000000 
  64.819000   498.000000     0.002008   472.947616     0.000000 
  64.827000   505.000000     0.001980   472.740930     0.000000 
  64.835000   485.000000     0.002062   472.554781     0.000000 
  64.843000   444.000000     0.002252   472.385410     0.000000 
  64.851000   458.000000     0.002183   472.229897     0.000000 
  64.859000   456.000000     0.002193   472.085990     0.000000 
  64.867000   466.000000     0.002146   471.951954     0.000000 
  64.875000   514.000000     0.001946   471.826446     0.000000 
  64.883000   533.000000     0.001876   471.708412     0.000000 
  64.891000   483.000000     0.002070   471.597017     0.000000 
  64.899000   508.000000     0.001969   471.491579     0.000000 
  64.907000   489.000000     0.002045   471.391538     0.000000 
  64.915000   520.000000     0.001923   471.296423     0.000000 
  64.923000   504.000000     0.001984   471.205833     0.000000 
  64.931000   478.000000     0.002092   471.119419     0.000000 
  64.939000   509.000000     0.001965   471.036879     0.000000 
  64.947000   505.000000     0.001980   470.957947     0.000000 
  64.955000   454.000000     0.002203   470.882387     0.000000 
  64.963000   454.000000     0.002203   470.809991     0.000000 
  64.971000   485.000000     0.002062   470.740572     0.000000 
  64.979000   485.000000     0.002062   470.673962     0.000000 
  64.987000   460.000000     0.002174   470.610010     0.000000 
  64.995000   450.000000     0.002222   470.548582     0.000000 
  65.003000   460.000000     0.002174   470.489554     0.000000 
  65.011000   466.000000     0.002146   470.432816     0.000000 
  65.019000   500.000000     0.002000   470.378266     0.000000 
  65.027000   505.000000     0.001980   470.325813     0.000000 
  65.035000   494.000000     0.002024   470.275373     0.000000 
  65.043000   470.000000     0.002128   470.226869     0.000000 
  65.051000   502.000000     0.001992   470.180232     0.000000 
  65.059000   452.000000     0.002212   470.135398     0.000000 
  65.067000   467.000000     0.002141   470.092309     0.000000 
  65.075000   461.000000     0.002169   470.050910     0.000000 
  65.083000   497.000000     0.002012   470.011152     0.000000 
  65.091000   455.000000     0.002198   469.972990     0.000000 
  65.099000   467.000000     0.002141   469.936382     0.000000 
  65.107000   470.000000     0.002128   469.901291     0.000000 
  65.115000   509.000000     0.001965   469.867681     0.000000 
  65.123000   459.000000     0.002179   469.835522     0.000000 
  65.131000   500.000000     0.002000   469.804782     0.000000 
  65.139000   517.000000     0.001934   469.775437     0.000000 
  65.147000   489.000000     0.002045   469.747462     0.000000 
  65.155000   486.000000     0.002058   469.720834     0.000000 
  65.163000   506.000000     0.001976   469.695535     0.000000 
  65.171000   513.000000     0.001949   469.671546     0.000000 
  65.179000   503.000000     0.001988   469.648852     0.000000 
  65.187000   503.000000     0.001988   469.627440     0.000000 
  65.195000   506.000000     0.001976   469.607296     0.000000 
  65.203000   496.000000     0.002016   469.588411     0.000000 
  65.211000   473.000000     0.002114   469.570776     0.000000 
  65.219000   476.000000     0.002101   469.554383     0.000000 
  65.227000   503.000000     0.001988   469.539229     0.000000 
  65.235000   448.000000     0.002232   469.525307     0.000000 
  65.243000   461.000000     0.002169   469.512617     0.000000 
  65.251000   495.000000     0.002020   469.501157     0.000000 
  65.259000   464.000000     0.002155   469.490927     0.000000 
  65.267000   467.000000     0.002141   469.481930     0.000000 
  65.275000   513.000000     0.001949   469.474169     0.000000 
  65.283000   508.000000     0.001969   469.467649     0.000000 
  65.291000   497.000000     0.002012   469.462376     0.000000 
  65.299000   509.000000     0.001965   469.458359     0.000000 
  65.307000   482.000000     0.002075   469.455605     0.000000 
  65.315000   467.000000     0.002141   469.454127     0.000000 
  65.323000   458.000000     0.002183   469.453936     0.000000 
  65.331000   479.000000     0.002088   469.455047     0.000000 
  65.339000   461.000000     0.002169   469.457474     0.000000 
  65.347000   448.000000     0.002232   469.461236     0.000000 
  65.355000   472.000000     0.002119   469.466349     0.000000 
  65.363000   470.000000     0.002128   469.472835     0.000000 
  65.371000   452.000000     0.002212   469.480716     0.000000 
  65.379000   463.000000     0.002160   469.490016     0.000000 
  65.387000   482.000000     0.002075   469.500760     0.000000 
  65.395000   487.000000     0.002053   469.512976     0.000000 
  65.403000   513.000000     0.001949   469.526693     0.000000 
  65.411000   463.000000     0.002160   469.541945     0.000000 
  65.419000   523.000000     0.001912   469.558763     0.000000 
  65.427000   518.000000     0.001931   469.577185     0.000000 
  65.435000   451.000000     0.002217   469.597250     0.000000 
  65.443000   510.000000     0.001961   469.618997     0.000000 
  65.451000   508.000000     0.001969   469.642470     0.000000 
  65.459000   427.000000     0.002342   469.667716     0.000000 
  65.467000   421.000000     0.002375   469.694784     0.000000 
  65.475000   485.000000     0.002062   469.723725     0.000000 
  65.483000   462.000000     0.002165   469.754596     0.000000 
  65.491000   419.000000     0.002387   469.787453     0.000000 
  65.499000   462.000000     0.002165   469.822360     0.000000 
  65.507000   491.000000     0.002037   469.859382     0.000000 
  65.515000   520.000000     0.001923   469.898588     0.000000 
  65.523000   510.000000     0.001961   469.940053     0.000000 
  65.531000   492.000000     0.002033   469.983853     0.000000 
  65.539000   472.000000     0.002119   470.030071     0.000000 
  65.547000   458.000000     0.002183   470.078796     0.000000 
  65.555000   479.000000     0.002088   470.130119     0.000000 
  65.563000   485.000000     0.002062   470.184139     0.000000 
  65.571000   473.000000     0.002114   470.240960     0.000000 
  65.579000   488.000000     0.002049   470.300692     0.000000 
  65.587000   471.000000     0.002123   470.363452     0.000000 
  65.595000   459.000000     0.002179   470.429364     0.000000 
  65.603000   400.000000     0.002500   470.498559     0.000000 
  65.611000   472.000000     0.002119   470.571179     0.000000 
  65.619000   489.000000     0.002045   470.647370     0.000000 
  65.627000   502.000000     0.001992   470.727291     0.000000 
  65.635000   481.000000     0.002079   470.811110     0.000000 
  65.643000   517.000000     0.001934   470.899004     0.000000 
  65.651000   497.000000     0.002012   470.991164     0.000000 
  65.659000   485.000000     0.002062   471.087791     0.000000 
  65.667000   501.000000     0.001996   471.189102     0.000000 
  65.675000   534.000000     0.001873   471.231454     0.000000 
  65.683000   481.000000     0.002079   471.343397     0.000000 
  65.691000   493.000000     0.002028   471.460752     0.000000 
  65.699000   467.000000     0.002141   471.583798     0.000000 
  65.707000   476.000000     0.002101   471.712835     0.000000 
  65.715000   468.000000     0.002137   470.581779     0.000000 
  65.723000   472.000000     0.002119   470.734938     0.000000 
  65.731000   487.000000     0.002053   470.894970     0.000000 
  65.739000   478.000000     0.002092   471.062272     0.000000 
  65.747000   483.000000     0.002070   471.237268     0.000000 
  65.755000   467.000000     0.002141   471.420416     0.000000 
  65.763000   440.000000     0.002273   471.612207     0.000000 
  65.771000   458.000000     0.002183   471.813169     0.000000 
  65.779000   465.000000     0.002151   472.023872     0.000000 
  65.787000   502.000000     0.001992   472.244930     0.000000 
  65.795000   465.000000     0.002151   472.477008     0.000000 
  65.803000   508.000000     0.001969   472.720821     0.000000 
  65.811000   489.000000     0.002045   472.977146     0.000000 
  65.819000   498.000000     0.002008   473.246825     0.000000 
  65.827000   441.000000     0.002268   473.530769     0.000000 
  65.835000   460.000000     0.002174   473.829971     0.000000 
  65.843000   472.000000     0.002119   474.145510     0.000000 
  65.851000   466.000000     0.002146   474.478560     0.000000 
  65.859000   450.000000     0.002222   474.830403     0.000000 
  65.867000   479.000000     0.002088   475.202441     0.000000 
  65.875000   500.000000     0.002000   475.596207     0.000000 
  65.883000   500.000000     0.002000   476.013379     0.000000 
  65.891000   499.000000     0.002004   476.455804     0.000000 
  65.899000   505.000000     0.001980   476.925508     0.000000 
  65.907000   486.000000     0.002058   477.424726     0.000000 
  65.915000   502.000000     0.001992   477.955922     0.000000 
  65.923000   529.000000     0.001890   478.521823     0.000000 
  65.931000   488.000000     0.002049   479.125447     0.000000 
  65.939000   466.000000     0.002146   479.770145     0.000000 
  65.947000   494.000000     0.002024   480.459644     0.000000 
  65.955000   497.000000     0.002012   481.198099     0.000000 
  65.963000   469.000000     0.002132   481.990150     0.000000 
  65.971000   456.000000     0.002193   482.840995     0.000000 
  65.979000   473.000000     0.002114   483.756468     0.000000 
  65.987000   506.000000     0.001976   484.743132     0.000000 
  65.995000   489.000000     0.002045   485.808398     0.000000 
  66.003000   495.000000     0.002020   486.960652     0.000000 
  66.011000   492.000000     0.002033   488.209418     0.000000 
  66.019000   561.000000     0.001783   489.565556     0.000000 
  66.027000   530.000000     0.001887   491.041506     0.000000 
  66.035000   514.000000     0.001946   492.651599     0.000000 
  66.043000   522.000000     0.001916   494.412468     0.000000 
  66.051000   498.000000     0.002008   496.343594     0.000000 
  66.059000   504.000000     0.001984   498.468055     0.000000 
  66.067000   487.000000     0.002053   500.813579     0.000000 
  66.075000   456.000000     0.002193   503.414002     0.000000 
  66.083000   468.000000     0.002137   506.311330     0.000000 
  66.091000   518.000000     0.001931   509.558565     0.000000 
  66.099000   497.000000     0.002012   513.223546     0.000000 
  66.107000   497.000000     0.002012   517.393976     0.000000 
  66.115000   561.000000     0.001783   522.183782     0.000000 
  66.123000   572.000000     0.001748   527.740776     0.000000 
  66.131000   578.000000     0.001730   534.255315     0.000000 
  66.139000   575.000000     0.001739   541.969349     0.000000 
  66.147000   581.000000     0.001721   551.184729     0.000000 
  66.155000   626.000000     0.001597   562.269298     0.000000 
  66.163000   635.000000     0.001575   575.658814     0.000000 
  66.171000   618.000000     0.001618   591.852659     0.000000 
  66.179000   615.000000     0.001626   611.401326     0.000000 
  66.187000   611.000000     0.001637   634.884034     0.000000 
  66.195000   646.000000     0.001548   662.875170     0.000000 
  66.203000   700.000000     0.001429   695.898139     0.000000 
  66.211000   696.000000     0.001437   734.363763     0.000000 
  66.219000   768.000000     0.001302   778.486667     0.000000 
  66.227000   786.000000     0.001272   828.166706     0.000000 
  66.235000   929.000000     0.001076   882.815410     0.000000 
  66.243000  1003.000000     0.000997   941.107944     0.000000 
  66.251000  1108.000000     0.000903  1000.668590     0.000000 
  66.259000  1273.000000     0.000786  1057.780811     0.000000 
  66.267000  1390.000000     0.000719  1107.358289     0.000000 
  66.275000  1454.000000     0.000688  1143.527787     0.000000 
  66.283000  1558.000000     0.000642  1161.017107     0.000000 
  66.291000  1597.000000     0.000626  1156.948284     0.000000 
  66.299000  1537.000000     0.000651  1132.009748     0.000000 
  66.307000  1496.000000     0.000668  1090.164051     0.000000 
  66.315000  1397.000000     0.000716  1037.111653     0.000000 
  66.323000  1235.000000     0.000810   978.553041     0.000000 
  66.331000  1104.000000     0.000906   919.093393     0.000000 
  66.339000   936.000000     0.001068   861.927069     0.000000 
  66.347000   849.000000     0.001178   809.001108     0.000000 
  66.355000   810.000000     0.001235   761.333080     0.000000 
  66.363000   767.000000     0.001304   719.305548     0.000000 
  66.371000   756.000000     0.001323   682.885013     0.000000 
  66.379000   717.000000     0.001395   651.772439     0.000000 
  66.387000   649.000000     0.001541   625.506843     0.000000 
  66.395000   712.000000     0.001404   603.539630     0.000000 
  66.403000   665.000000     0.001504   585.289951     0.000000 
  66.411000   650.000000     0.001538   570.185960     0.000000 
  66.419000   628.000000     0.001592   557.694087     0.000000 
  66.427000   645.000000     0.001550   547.337591     0.000000 
  66.435000   673.000000     0.001486   538.705804     0.000000 
  66.443000   584.000000     0.001712   531.455872     0.000000 
  66.451000   534.000000     0.001873   525.309046     0.000000 
  66.459000   562.000000     0.001779   520.043569     0.000000 
  66.467000   561.000000     0.001783   515.485927     0.000000 
  66.475000   527.000000     0.001898   511.501855     0.000000 
  66.483000   530.000000     0.001887   507.978256     0.000000 
  66.491000   537.000000     0.001862   504.855014     0.000000 
  66.499000   552.000000     0.001812   502.060503     0.000000 
  66.507000   584.000000     0.001712   499.546189     0.000000 
  66.515000   552.000000     0.001812   497.273384     0.000000 
  66.523000   561.000000     0.001783   495.210721     0.000000 
  66.531000   576.000000     0.001736   493.332347     0.000000 
  66.539000   550.000000     0.001818   491.616620     0.000000 
  66.547000   572.000000     0.001748   490.045192     0.000000 
  66.555000   504.000000     0.001984   488.602340     0.000000 
  66.563000   436.000000     0.002294   487.274476     0.000000 
  66.571000   473.000000     0.002114   486.049780     0.000000 
  66.579000   461.000000     0.002169   484.917912     0.000000 
  66.587000   489.000000     0.002045   483.869792     0.000000 
  66.595000   486.000000     0.002058   482.897413     0.000000 
  66.603000   485.000000     0.002062   481.993692     0.000000 
  66.611000   488.000000     0.002049   481.152349     0.000000 
  66.619000   441.000000     0.002268   480.367798     0.000000 
  66.627000   465.000000     0.002151   479.635054     0.000000 
  66.635000   477.000000     0.002096   478.949667     0.000000 
  66.643000   507.000000     0.001972   478.307645     0.000000 
  66.651000   491.000000     0.002037   477.705408     0.000000 
  66.659000   466.000000     0.002146   477.139732     0.000000 
  66.667000   483.000000     0.002070   476.607711     0.000000 
  66.675000   483.000000     0.002070   476.106719     0.000000 
  66.683000   471.000000     0.002123   475.634382     0.000000 
  66.691000   460.000000     0.002174   475.188543     0.000000 
  66.699000   426.000000     0.002347   474.767245     0.000000 
  66.707000   445.000000     0.002247   474.368707     0.000000 
  66.715000   471.000000     0.002123   473.991306     0.000000 
  66.723000   434.000000     0.002304   473.633558     0.000000 
  66.731000   460.000000     0.002174   473.294109     0.000000 
  66.739000   474.000000     0.002110   472.971717     0.000000 
  66.747000   498.000000     0.002008   472.665243     0.000000 
  66.755000   514.000000     0.001946   472.373643     0.000000 
  66.763000   537.000000     0.001862   472.095954     0.000000 
  66.771000   471.000000     0.002123   471.831291     0.000000 
  66.779000   489.000000     0.002045   471.578838     0.000000 
  66.787000   489.000000     0.002045   471.337840     0.000000 
  66.795000   498.000000     0.002008   471.107601     0.000000 
  66.803000   467.000000     0.002141   470.887476     0.000000 
  66.811000   505.000000     0.001980   470.676868     0.000000 
  66.819000   506.000000     0.001976   470.475221     0.000000 
  66.827000   490.000000     0.002041   470.282023     0.000000 
  66.835000   478.000000     0.002092   470.096793     0.000000 
  66.843000   506.000000     0.001976   469.919088     0.000000 
  66.851000   482.000000     0.002075   469.748492     0.000000 
  66.859000   477.000000     0.002096   469.584620     0.000000 
  66.867000   496.000000     0.002016   469.427110     0.000000 
  66.875000   463.000000     0.002160   469.275625     0.000000 
  66.883000   489.000000     0.002045   469.129851     0.000000 
  66.891000   517.000000     0.001934   468.989493     0.000000 
  66.899000   495.000000     0.002020   468.854274     0.000000 
  66.907000   505.000000     0.001980   468.723936     0.000000 
  66.915000   493.000000     0.002028   468.598237     0.000000 
  66.923000   477.000000     0.002096   468.476948     0.000000 
  66.931000   476.000000     0.002101   468.359856     0.000000 
  66.939000   449.000000     0.002227   468.246759     0.000000 
  66.947000   463.000000     0.002160   468.137467     0.000000 
  66.955000   477.000000     0.002096   468.031804     0.000000 
  66.963000   446.000000     0.002242   467.929599     0.000000 
  66.971000   471.000000     0.002123   467.830696     0.000000 
  66.979000   460.000000     0.002174   467.734944     0.000000 
  66.987000   477.000000     0.002096   467.642202     0.000000 
  66.995000   458.000000     0.002183   467.552338     0.000000 
  67.003000   470.000000     0.002128   467.465225     0.000000 
  67.011000   487.000000     0.002053   467.380743     0.000000 
  67.019000   475.000000     0.002105   467.298780     0.000000 
  67.027000   470.000000     0.002128   467.219230     0.000000 
  67.035000   470.000000     0.002128   467.141990     0.000000 
  67.043000   471.000000     0.002123   467.066964     0.000000 
  67.051000   477.000000     0.002096   466.994062     0.000000 
  67.059000   474.000000     0.002110   466.923197     0.000000 
  67.067000   466.000000     0.002146   466.854288     0.000000 
  67.075000   473.000000     0.002114   466.787254     0.000000 
  67.083000   479.000000     0.002088   466.722024     0.000000 
  67.091000   482.000000     0.002075   466.658526     0.000000 
  67.099000   421.000000     0.002375   466.596692     0.000000 
  67.107000   469.000000     0.002132   466.536460     0.000000 
  67.115000   503.000000     0.001988   466.477768     0.000000 
  67.123000   461.000000     0.002169   466.420557     0.000000 
  67.131000   413.000000     0.002421   466.364774     0.000000 
  67.139000   436.000000     0.002294   466.310364     0.000000 
  67.147000   467.000000     0.002141   466.257278     0.000000 
  67.155000   448.000000     0.002232   466.205467     0.000000 
  67.163000   466.000000     0.002146   466.154886     0.000000 
  67.171000   482.000000     0.002075   466.105490     0.000000 
  67.179000   471.000000     0.002123   466.057239     0.000000 
  67.187000   473.000000     0.002114   466.010090     0.000000 
  67.195000   473.000000     0.002114   465.964008     0.000000 
  67.203000   488.000000     0.002049   465.918953     0.000000 
  67.211000   499.000000     0.002004   465.874892     0.000000 
  67.219000   467.000000     0.002141   465.831791     0.000000 
  67.227000   445.000000     0.002247   465.789617     0.000000 
  67.235000   456.000000     0.002193   465.748340     0.000000 
  67.243000   461.000000     0.002169   465.707930     0.000000 
  67.251000   481.000000     0.002079   465.668358     0.000000 
  67.259000   497.000000     0.002012   465.629598     0.000000 
  67.267000   455.000000     0.002198   465.591622     0.000000 
  67.275000   466.000000     0.002146   465.554407     0.000000 
  67.283000   511.000000     0.001957   465.517927     0.000000 
  67.291000   488.000000     0.002049   465.482160     0.000000 
  67.299000   466.000000     0.002146   465.447084     0.000000 
  67.307000   491.000000     0.002037   465.412676     0.000000 
  67.315000   471.000000     0.002123   465.378917     0.000000 
  67.323000   506.000000     0.001976   465.345786     0.000000 
  67.331000   473.000000     0.002114   465.313265     0.000000 
  67.339000   526.000000     0.001901   465.281335     0.000000 
  67.347000   490.000000     0.002041   465.249979     0.000000 
  67.355000   489.000000     0.002045   465.219179     0.000000 
  67.363000   521.000000     0.001919   465.188920     0.000000 
  67.371000   488.000000     0.002049   465.159185     0.000000 
  67.379000   464.000000     0.002155   465.129959     0.000000 
  67.387000   467.000000     0.002141   465.101227     0.000000 
  67.395000   448.000000     0.002232   465.072976     0.000000 
  67.403000   454.000000     0.002203   465.045192     0.000000 
  67.411000   500.000000     0.002000   465.017861     0.000000 
  67.419000   523.000000     0.001912   464.990971     0.000000 
  67.427000   500.000000     0.002000   464.964510     0.000000 
  67.435000   459.000000     0.002179   464.938466     0.000000 
  67.443000   442.000000     0.002262   464.912827     0.000000 
  67.451000   476.000000     0.002101   464.887583     0.000000 
  67.459000   487.000000     0.002053   464.862722     0.000000 
  67.467000   462.000000     0.002165   464.838235     0.000000 
  67.475000   437.000000     0.002288   464.814111     0.000000 
  67.483000   481.000000     0.002079   464.790341     0.000000 
  67.491000   452.000000     0.002212   464.766915     0.000000 
  67.499000   472.000000     0.002119   464.743825     0.000000 
  67.507000   456.000000     0.002193   464.721062     0.000000 
  67.515000   454.000000     0.002203   464.698616     0.000000 
  67.523000   491.000000     0.002037   464.676482     0.000000 
  67.531000   478.000000     0.002092   464.654649     0.000000 
  67.539000   446.000000     0.002242   464.633111     0.000000 
  67.547000   447.000000     0.002237   464.611860     0.000000 
  67.555000   453.000000     0.002208   464.590889     0.000000 
  67.563000   493.000000     0.002028   464.570191     0.000000 
  67.571000   464.000000     0.002155   464.549760     0.000000 
  67.579000   509.000000     0.001965   464.529588     0.000000 
  67.587000   497.000000     0.002012   464.509670     0.000000 
  67.595000   459.000000     0.002179   464.489999     0.000000 
  67.603000   447.000000     0.002237   464.470569     0.000000 
  67.611000   430.000000     0.002326   464.451375     0.000000 
  67.619000   482.000000     0.002075   464.432411     0.000000 
  67.627000   539.000000     0.001855   464.413671     0.000000 
  67.635000   473.000000     0.002114   464.395150     0.000000 
  67.643000   457.000000     0.002188   464.376844     0.000000 
  67.651000   496.000000     0.002016   464.358746     0.000000 
  67.659000   498.000000     0.002008   464.340853     0.000000 
  67.667000   509.000000     0.001965   464.323159     0.000000 
  67.675000   468.000000     0.002137   464.305661     0.000000 
  67.683000   427.000000     0.002342   464.540675     0.000000 
  67.691000   455.000000     0.002198   464.525730     0.000000 
  67.699000   502.000000     0.001992   464.510996     0.000000 
  67.707000   480.000000     0.002083   464.496469     0.000000 
  67.715000   480.000000     0.002083   464.482145     0.000000 
  67.723000   445.000000     0.002247   465.743324     0.000000 
  67.731000   461.000000     0.002169   465.740398     0.000000 
  67.739000   481.000000     0.002079   465.737809     0.000000 
  67.747000   482.000000     0.002075   465.735556     0.000000 
  67.755000   435.000000     0.002299   465.733638     0.000000 
  67.763000   449.000000     0.002227   465.732057     0.000000 
  67.771000   447.000000     0.002237   465.730810     0.000000 
  67.779000   476.000000     0.002101   465.729900     0.000000 
  67.787000   497.000000     0.002012   465.729325     0.000000 
  67.795000   515.000000     0.001942   465.729087     0.000000 
  67.803000   507.000000     0.001972   465.729186     0.000000 
  67.811000   457.000000     0.002188   465.729623     0.000000 
  67.819000   451.000000     0.002217   465.730399     0.000000 
  67.827000   461.000000     0.002169   465.731514     0.000000 
  67.835000   474.000000     0.002110   465.732970     0.000000 
  67.843000   447.000000     0.002237   465.734769     0.000000 
  67.851000   443.000000     0.002257   465.736912     0.000000 
  67.859000   446.000000     0.002242   465.739400     0.000000 
  67.867000   460.000000     0.002174   465.742236     0.000000 
  67.875000   496.000000     0.002016   465.745422     0.000000 
  67.883000   494.000000     0.002024   465.748959     0.000000 
  67.891000   435.000000     0.002299   465.752850     0.000000 
  67.899000   456.000000     0.002193   465.757098     0.000000 
  67.907000   462.000000     0.002165   465.761706     0.000000 
  67.915000   447.000000     0.002237   465.766675     0.000000 
  67.923000   450.000000     0.002222   465.772010     0.000000 
  67.931000   446.000000     0.002242   465.777713     0.000000 
  67.939000   465.000000     0.002151   465.783787     0.000000 
  67.947000   494.000000     0.002024   465.790237     0.000000 
  67.955000   505.000000     0.001980   465.797065     0.000000 
  67.963000   502.000000     0.001992   465.804276     0.000000 
  67.971000   468.000000     0.002137   465.811874     0.000000 
  67.979000   465.000000     0.002151   465.819863     0.000000 
  67.987000   455.000000     0.002198   465.828248     0.000000 
  67.995000   442.000000     0.002262   465.837032     0.000000 
  68.003000   467.000000     0.002141   465.846222     0.000000 
  68.011000   484.000000     0.002066   465.855821     0.000000 
  68.019000   498.000000     0.002008   465.865836     0.000000 
  68.027000   454.000000     0.002203   465.876271     0.000000 
  68.035000   434.000000     0.002304   465.887132     0.000000 
  68.043000   441.000000     0.002268   465.898425     0.000000 
  68.051000   481.000000     0.002079   465.910157     0.000000 
  68.059000   505.000000     0.001980   465.922333     0.000000 
  68.067000   450.000000     0.002222   465.934960     0.000000 
  68.075000   481.000000     0.002079   465.948044     0.000000 
  68.083000   480.000000     0.002083   465.961594     0.000000 
  68.091000   432.000000     0.002315   465.975615     0.000000 
  68.099000   454.000000     0.002203   465.990116     0.000000 
  68.107000   469.000000     0.002132   466.005105     0.000000 
  68.115000   432.000000     0.002315   466.020588     0.000000 
  68.123000   480.000000     0.002083   465.486403     0.000000 
  68.131000   462.000000     0.002165   465.507658     0.000000 
  68.139000   462.000000     0.002165   465.529372     0.000000 
  68.147000   482.000000     0.002075   465.551556     0.000000 
  68.155000   470.000000     0.002128   465.574221     0.000000 
  68.163000   477.000000     0.002096   465.597378     0.000000 
  68.171000   440.000000     0.002273   465.621037     0.000000 
  68.179000   416.000000     0.002404   465.645211     0.000000 
  68.187000   458.000000     0.002183   465.669910     0.000000 
  68.195000   464.000000     0.002155   465.695148     0.000000 
  68.203000   429.000000     0.002331   465.720937     0.000000 
  68.211000   408.000000     0.002451   465.747288     0.000000 
  68.219000   467.000000     0.002141   465.774217     0.000000 
  68.227000   434.000000     0.002304   465.801736     0.000000 
  68.235000   475.000000     0.002105   465.829859     0.000000 
  68.243000   413.000000     0.002421   465.858602     0.000000 
  68.251000   441.000000     0.002268   465.887978     0.000000 
  68.259000   436.000000     0.002294   465.918003     0.000000 
  68.267000   487.000000     0.002053   465.948693     0.000000 
  68.275000   470.000000     0.002128   465.980064     0.000000 
  68.283000   484.000000     0.002066   466.012133     0.000000 
  68.291000   489.000000     0.002045   466.044917     0.000000 
  68.299000   477.000000     0.002096   466.078435     0.000000 
  68.307000   494.000000     0.002024   466.112703     0.000000 
  68.315000   447.000000     0.002237   466.147743     0.000000 
  68.323000   455.000000     0.002198   466.183572     0.000000 
  68.331000   487.000000     0.002053   466.220212     0.000000 
  68.339000   444.000000     0.002252   466.257683     0.000000 
  68.347000   447.000000     0.002237   466.296007     0.000000 
  68.355000   462.000000     0.002165   466.335206     0.000000 
  68.363000   460.000000     0.002174   466.375302     0.000000 
  68.371000   482.000000     0.002075   466.416321     0.000000 
  68.379000   472.000000     0.002119   466.458285     0.000000 
  68.387000   446.000000     0.002242   466.501222     0.000000 
  68.395000   466.000000     0.002146   466.545156     0.000000 
  68.403000   451.000000     0.002217   466.590114     0.000000 
  68.411000   465.000000     0.002151   466.636126     0.000000 
  68.419000   459.000000     0.002179   466.683220     0.000000 
  68.427000   484.000000     0.002066   466.731425     0.000000 
  68.435000   445.000000     0.002247   466.780773     0.000000 
  68.443000   486.000000     0.002058   466.831296     0.000000 
  68.451000   510.000000     0.001961   466.883028     0.000000 
  68.459000   462.000000     0.002165   466.936002     0.000000 
  68.467000   496.000000     0.002016   466.990254     0.000000 
  68.475000   418.000000     0.002392   467.045822     0.000000 
  68.483000   451.000000     0.002217   467.102743     0.000000 
  68.491000   449.000000     0.002227   467.161058     0.000000 
  68.499000   443.000000     0.002257   467.220807     0.000000 
  68.507000   476.000000     0.002101   467.282033     0.000000 
  68.515000   463.000000     0.002160   467.344781     0.000000 
  68.523000   465.000000     0.002151   467.409096     0.000000 
  68.531000   481.000000     0.002079   467.475027     0.000000 
  68.539000   490.000000     0.002041   467.542622     0.000000 
  68.547000   486.000000     0.002058   467.611933     0.000000 
  68.555000   455.000000     0.002198   467.683014     0.000000 
  68.563000   424.000000     0.002358   467.755920     0.000000 
  68.571000   437.000000     0.002288   467.830710     0.000000 
  68.579000   473.000000     0.002114   467.907442     0.000000 
  68.587000   458.000000     0.002183   467.986180     0.000000 
  68.595000   456.000000     0.002193   468.066988     0.000000 
  68.603000   466.000000     0.002146   468.149935     0.000000 
  68.611000   446.000000     0.002242   468.235090     0.000000 
  68.619000   499.000000     0.002004   468.322527     0.000000 
  68.627000   490.000000     0.002041   468.412323     0.000000 
  68.635000   473.000000     0.002114   468.504556     0.000000 
  68.643000   423.000000     0.002364   468.599311     0.000000 
  68.651000   460.000000     0.002174   468.696674     0.000000 
  68.659000   490.000000     0.002041   468.796734     0.000000 
  68.667000   465.000000     0.002151   468.899587     0.000000 
  68.675000   460.000000     0.002174   469.005331     0.000000 
  68.683000   450.000000     0.002222   469.114068     0.000000 
  68.691000   465.000000     0.002151   469.225907     0.000000 
  68.699000   460.000000     0.002174   469.340958     0.000000 
  68.707000   454.000000     0.002203   469.459341     0.000000 
  68.715000   468.000000     0.002137   469.581177     0.000000 
  68.723000   470.000000     0.002128   469.706595     0.000000 
  68.731000   456.000000     0.002193   469.835730     0.000000 
  68.739000   468.000000     0.002137   469.968722     0.000000 
  68.747000   456.000000     0.002193   470.105719     0.000000 
  68.755000   438.000000     0.002283   470.246876     0.000000 
  68.763000   474.000000     0.002110   470.392355     0.000000 
  68.771000   466.000000     0.002146   470.542326     0.000000 
  68.779000   468.000000     0.002137   470.696969     0.000000 
  68.787000   473.000000     0.002114   470.856471     0.000000 
  68.795000   486.000000     0.002058   471.021028     0.000000 
  68.803000   449.000000     0.002227   471.190849     0.000000 
  68.811000   452.000000     0.002212   471.366151     0.000000 
  68.819000   451.000000     0.002217   471.547164     0.000000 
  68.827000   438.000000     0.002283   471.734128     0.000000 
  68.835000   461.000000     0.002169   471.927300     0.000000 
  68.843000   465.000000     0.002151   472.126946     0.000000 
  68.851000   466.000000     0.002146   472.333349     0.000000 
  68.859000   470.000000     0.002128   472.546808     0.000000 
  68.867000   458.000000     0.002183   472.767637     0.000000 
  68.875000   476.000000     0.002101   472.996169     0.000000 
  68.883000   490.000000     0.002041   473.232755     0.000000 
  68.891000   462.000000     0.002165   473.477768     0.000000 
  68.899000   459.000000     0.002179   473.731600     0.000000 
  68.907000   448.000000     0.002232   473.994668     0.000000 
  68.915000   420.000000     0.002381   474.267414     0.000000 
  68.923000   441.000000     0.002268   474.550306     0.000000 
  68.931000   454.000000     0.002203   474.843839     0.000000 
  68.939000   448.000000     0.002232   475.148542     0.000000 
  68.947000   491.000000     0.002037   475.464975     0.000000 
  68.955000   490.000000     0.002041   475.793733     0.000000 
  68.963000   454.000000     0.002203   476.135450     0.000000 
  68.971000   482.000000     0.002075   476.490802     0.000000 
  68.979000   485.000000     0.002062   476.860508     0.000000 
  68.987000   478.000000     0.002092   477.245335     0.000000 
  68.995000   496.000000     0.002016   477.646103     0.000000 
  69.003000   501.000000     0.001996   478.063687     0.000000 
  69.011000   482.000000     0.002075   478.499024     0.000000 
  69.019000   490.000000     0.002041   478.953115     0.000000 
  69.027000   494.000000     0.002024   479.427033     0.000000 
  69.035000   474.000000     0.002110   479.921930     0.000000 
  69.043000   520.000000     0.001923   480.439041     0.000000 
  69.051000   484.000000     0.002066   480.979694     0.000000 
  69.059000   472.000000     0.002119   481.545316     0.000000 
  69.067000   493.000000     0.002028   482.137445     0.000000 
  69.075000   477.000000     0.002096   482.757737     0.000000 
  69.083000   475.000000     0.002105   483.407981     0.000000 
  69.091000   455.000000     0.002198   484.090107     0.000000 
  69.099000   449.000000     0.002227   484.806204     0.000000 
  69.107000   467.000000     0.002141   485.558534     0.000000 
  69.115000   494.000000     0.002024   486.349549     0.000000 
  69.123000   501.000000     0.001996   487.181912     0.000000 
  69.131000   497.000000     0.002012   488.058517     0.000000 
  69.139000   501.000000     0.001996   488.982513     0.000000 
  69.147000   457.000000     0.002188   489.957335     0.000000 
  69.155000   473.000000     0.002114   490.986733     0.000000 
  69.163000   487.000000     0.002053   492.074804     0.000000 
  69.171000   466.000000     0.002146   493.226038     0.000000 
  69.179000   478.000000     0.002092   494.445358     0.000000 
  69.187000   474.000000     0.002110   495.738172     0.000000 
  69.195000   474.000000     0.002110   497.110434     0.000000 
  69.203000   516.000000     0.001938   498.568705     0.000000 
  69.211000   500.000000     0.002000   500.120236     0.000000 
  69.219000   512.000000     0.001953   501.773049     0.000000 
  69.227000   480.000000     0.002083   503.536041     0.000000 
  69.235000   508.000000     0.001969   505.419096     0.000000 
  69.243000   495.000000     0.002020   507.433222     0.000000 
  69.251000   469.000000     0.002132   509.590708     0.000000 
  69.259000   482.000000     0.002075   511.905296     0.000000 
  69.267000   498.000000     0.002008   514.392406     0.000000 
  69.275000   514.000000     0.001946   517.069373     0.000000 
  69.283000   526.000000     0.001901   519.955750     0.000000 
  69.291000   539.000000     0.001855   523.073666     0.000000 
  69.299000   541.000000     0.001848   526.448255     0.000000 
  69.307000   500.000000     0.002000   530.108196     0.000000 
  69.315000   478.000000     0.002092   534.086379     0.000000 
  69.323000   516.000000     0.001938   538.420775     0.000000 
  69.331000   521.000000     0.001919   543.155553     0.000000 
  69.339000   519.000000     0.001927   548.342567     0.000000 
  69.347000   522.000000     0.001916   554.043345     0.000000 
  69.355000   546.000000     0.001832   560.331748     0.000000 
  69.363000   568.000000     0.001761   567.297534     0.000000 
  69.371000   555.000000     0.001802   575.051094     0.000000 
  69.379000   509.000000     0.001965   583.729629     0.000000 
  69.387000   551.000000     0.001815   593.505077     0.000000 
  69.395000   552.000000     0.001812   604.593987     0.000000 
  69.403000   540.000000     0.001852   617.269461     0.000000 
  69.411000   593.000000     0.001686   631.874991     0.000000 
  69.419000   590.000000     0.001695   648.839760     0.000000 
  69.427000   579.000000     0.001727   668.694435     0.000000 
  69.435000   608.000000     0.001645   692.085997     0.000000 
  69.443000   665.000000     0.001504   719.789447     0.000000 
  69.451000   679.000000     0.001473   752.713555     0.000000 
  69.459000   738.000000     0.001355   791.896982     0.000000 
  69.467000   789.000000     0.001267   838.490171     0.000000 
  69.475000   841.000000     0.001189   893.717029     0.000000 
  69.483000   906.000000     0.001104   958.808409     0.000000 
  69.491000   986.000000     0.001014  1034.896729     0.000000 
  69.499000  1079.000000     0.000927  1122.858691     0.000000 
  69.507000  1213.000000     0.000824  1223.095061     0.000000 
  69.515000  1394.000000     0.000717  1335.251042     0.000000 
  69.523000  1493.000000     0.000670  1457.917169     0.000000 
  69.531000  1605.000000     0.000623  1588.400801     0.000000 
  69.539000  1833.000000     0.000546  1722.666196     0.000000 
  69.547000  2158.000000     0.000463  1855.422490     0.000000 
  69.555000  2304.000000     0.000434  1980.135950     0.000000 
  69.563000  2581.000000     0.000387  2088.779210     0.000000 
  69.571000  2866.000000     0.000349  2171.686283     0.000000 
  69.579000  3003.000000     0.000333  2218.508549     0.000000 
  69.587000  3251.000000     0.000308  2220.908797     0.000000 
  69.595000  3150.000000     0.000317  2176.013111     0.000000 
  69.603000  3173.000000     0.000315  2088.279915     0.000000 
  69.611000  2815.000000     0.000355  1968.243788     0.000000 
  69.619000  2535.000000     0.000394  1829.011101     0.000000 
  69.627000  2076.000000     0.000482  1682.776538     0.000000 
  69.635000  1783.000000     0.000561  1538.879719     0.000000 
  69.643000  1553.000000     0.000644  1403.449315     0.000000 
  69.651000  1353.000000     0.000739  1279.930678     0.000000 
  69.659000  1147.000000     0.000872  1169.845245     0.000000 
  69.667000  1037.000000     0.000964  1073.451348     0.000000 
  69.675000   952.000000     0.001050   990.222334     0.000000 
  69.683000   861.000000     0.001161   919.167487     0.000000 
  69.691000   827.000000     0.001209   859.045208     0.000000 
  69.699000   798.000000     0.001253   808.508189     0.000000 
  69.707000   741.000000     0.001350   766.205008     0.000000 
  69.715000   680.000000     0.001471   730.850951     0.000000 
  69.723000   702.000000     0.001425   701.274676     0.000000 
  69.731000   695.000000     0.001439   676.444800     0.000000 
  69.739000   687.000000     0.001456   655.479993     0.000000 
  69.747000   663.000000     0.001508   637.646347     0.000000 
  69.755000   749.000000     0.001335   622.345874     0.000000 
  69.763000   643.000000     0.001555   609.099793     0.000000 
  69.771000   613.000000     0.001631   597.529668     0.000000 
  69.779000   565.000000     0.001770   587.338712     0.000000 
  69.787000   553.000000     0.001808   578.294758     0.000000 
  69.795000   549.000000     0.001821   570.215702     0.000000 
  69.803000   533.000000     0.001876   562.957629     0.000000 
  69.811000   594.000000     0.001684   556.405521     0.000000 
  69.819000   605.000000     0.001653   550.466190     0.000000 
  69.827000   592.000000     0.001689   545.063021     0.000000 
  69.835000   596.000000     0.001678   540.132134     0.000000 
  69.843000   532.000000     0.001880   535.619577     0.000000 
  69.851000   486.000000     0.002058   531.479287     0.000000 
  69.859000   519.000000     0.001927   527.671576     0.000000 
  69.867000   544.000000     0.001838   524.162004     0.000000 
  69.875000   538.000000     0.001859   520.920506     0.000000 
  69.883000   510.000000     0.001961   517.920711     0.000000 
  69.891000   502.000000     0.001992   515.139397     0.000000 
  69.899000   476.000000     0.002101   512.556043     0.000000 
  69.907000   458.000000     0.002183   510.152460     0.000000 
  69.915000   499.000000     0.002004   507.912477     0.000000 
  69.923000   507.000000     0.001972   505.821690     0.000000 
  69.931000   507.000000     0.001972   503.867225     0.000000 
  69.939000   456.000000     0.002193   502.037556     0.000000 
  69.947000   489.000000     0.002045   500.322338     0.000000 
  69.955000   459.000000     0.002179   498.712268     0.000000 
  69.963000   422.000000     0.002370   497.198961     0.000000 
  69.971000   508.000000     0.001969   495.774845     0.000000 
  69.979000   499.000000     0.002004   494.433068     0.000000 
  69.987000   494.000000     0.002024   493.237806     0.000000 
  69.995000   479.000000     0.002088   492.043249     0.000000 
  70.003000   478.000000     0.002092   490.914059     0.000000 
  70.011000   437.000000     0.002288   489.845560     0.000000 
  70.019000   456.000000     0.002193   488.833485     0.000000 
  70.027000   471.000000     0.002123   487.873933     0.000000 
  70.035000   443.000000     0.002257   486.963335     0.000000 
  70.043000   450.000000     0.002222   486.098414     0.000000 
  70.051000   483.000000     0.002070   485.276166     0.000000 
  70.059000   467.000000     0.002141   484.493825     0.000000 
  70.067000   420.000000     0.002381   483.748847     0.000000 
  70.075000   428.000000     0.002336   483.038885     0.000000 
  70.083000   476.000000     0.002101   482.361775     0.000000 
  70.091000   470.000000     0.002128   481.715514     0.000000 
  70.099000   470.000000     0.002128   481.098251     0.000000 
  70.107000   479.000000     0.002088   480.508270     0.000000 
  70.115000   461.000000     0.002169   479.943981     0.000000 
  70.123000   425.000000     0.002353   479.403905     0.000000 
  70.131000   492.000000     0.002033   478.886672     0.000000 
  70.139000   535.000000     0.001869   478.391003     0.000000 
  70.147000   457.000000     0.002188   477.915709     0.000000 
  70.155000   470.000000     0.002128   477.459682     0.000000 
  70.163000   490.000000     0.002041   477.021888     0.000000 
  70.171000   470.000000     0.002128   476.601360     0.000000 
  70.179000   460.000000     0.002174   476.197195     0.000000 
  70.187000   470.000000     0.002128   475.808548     0.000000 
  70.195000   468.000000     0.002137   475.434629     0.000000 
  70.203000   441.000000     0.002268   475.074695     0.000000 
  70.211000   491.000000     0.002037   474.728052     0.000000 
  70.219000   468.000000     0.002137   474.394047     0.000000 
  70.227000   444.000000     0.002252   474.072066     0.000000 
  70.235000   458.000000     0.002183   473.761533     0.000000 
  70.243000   464.000000     0.002155   473.461906     0.000000 
  70.251000   448.000000     0.002232   473.172674     0.000000 
  70.259000   457.000000     0.002188   472.893355     0.000000 
  70.267000   505.000000     0.001980   472.623497     0.000000 
  70.275000   488.000000     0.002049   472.362672     0.000000 
  70.283000   492.000000     0.002033   472.110475     0.000000 
  70.291000   469.000000     0.002132   471.866525     0.000000 
  70.299000   466.000000     0.002146   471.630462     0.000000 
  70.307000   433.000000     0.002309   471.401943     0.000000 
  70.315000   452.000000     0.002212   471.180647     0.000000 
  70.323000   485.000000     0.002062   470.966267     0.000000 
  70.331000   467.000000     0.002141   470.758514     0.000000 
  70.339000   409.000000     0.002445   470.557113     0.000000 
  70.347000   482.000000     0.002075   470.361804     0.000000 
  70.355000   464.000000     0.002155   470.172340     0.000000 
  70.363000   428.000000     0.002336   469.988485     0.000000 
  70.371000   447.000000     0.002237   469.810017     0.000000 
  70.379000   468.000000     0.002137   469.636724     0.000000 
  70.387000   475.000000     0.002105   469.468404     0.000000 
  70.395000   477.000000     0.002096   469.304866     0.000000 
  70.403000   483.000000     0.002070   469.145927     0.000000 
  70.411000   481.000000     0.002079   468.991413     0.000000 
  70.419000   505.000000     0.001980   468.841158     0.000000 
  70.427000   485.000000     0.002062   468.695005     0.000000 
  70.435000   452.000000     0.002212   468.552803     0.000000 
  70.443000   452.000000     0.002212   468.414409     0.000000 
  70.451000   452.000000     0.002212   468.279685     0.000000 
  70.459000   436.000000     0.002294   468.201113     0.000000 
  70.467000   408.000000     0.002451   468.073792     0.000000 
  70.475000   411.000000     0.002433   467.949771     0.000000 
  70.483000   461.000000     0.002169   467.828938     0.000000 
  70.491000   502.000000     0.001992   467.711182     0.000000 
  70.499000   491.000000     0.002037   467.596400     0.000000 
  70.507000   482.000000     0.002075   467.484491     0.000000 
  70.515000   467.000000     0.002141   467.375361     0.000000 
  70.523000   472.000000     0.002119   467.268917     0.000000 
  70.531000   461.000000     0.002169   467.165072     0.000000 
  70.539000   504.000000     0.001984   467.063742     0.000000 
  70.547000   476.000000     0.002101   466.964847     0.000000 
  70.555000   475.000000     0.002105   466.868310     0.000000 
  70.563000   457.000000     0.002188   466.774056     0.000000 
  70.571000   432.000000     0.002315   466.682015     0.000000 
  70.579000   451.000000     0.002217   466.592118     0.000000 
  70.587000   452.000000     0.002212   466.504301     0.000000 
  70.595000   456.000000     0.002193   466.418500     0.000000 
  70.603000   458.000000     0.002183   466.334656     0.000000 
  70.611000   461.000000     0.002169   466.252710     0.000000 
  70.619000   428.000000     0.002336   466.172607     0.000000 
  70.627000   424.000000     0.002358   466.094295     0.000000 
  70.635000   476.000000     0.002101   466.017720     0.000000 
  70.643000   484.000000     0.002066   465.942835     0.000000 
  70.651000   463.000000     0.002160   465.869592     0.000000 
  70.659000   443.000000     0.002257   465.797945     0.000000 
  70.667000   452.000000     0.002212   465.727850     0.000000 
  70.675000   498.000000     0.002008   465.659266     0.000000 
  70.683000   505.000000     0.001980   465.592152     0.000000 
  70.691000   433.000000     0.002309   465.526469     0.000000 
  70.699000   417.000000     0.002398   465.462179     0.000000 
  70.707000   431.000000     0.002320   465.399247     0.000000 
  70.715000   429.000000     0.002331   465.337637     0.000000 
  70.723000   457.000000     0.002188   465.277317     0.000000 
  70.731000   470.000000     0.002128   465.218254     0.000000 
  70.739000   441.000000     0.002268   465.160417     0.000000 
  70.747000   453.000000     0.002208   465.103777     0.000000 
  70.755000   436.000000     0.002294   465.048304     0.000000 
  70.763000   444.000000     0.002252   464.993973     0.000000 
  70.771000   471.000000     0.002123   464.940755     0.000000 
  70.779000   456.000000     0.002193   464.888626     0.000000 
  70.787000   432.000000     0.002315   464.837561     0.000000 
  70.795000   439.000000     0.002278   464.787537     0.000000 
  70.803000   451.000000     0.002217   464.738531     0.000000 
  70.811000   440.000000     0.002273   464.690522     0.000000 
  70.819000   455.000000     0.002198   464.643488     0.000000 
  70.827000   462.000000     0.002165   464.597409     0.000000 
  70.835000   433.000000     0.002309   464.552267     0.000000 
  70.843000   444.000000     0.002252   464.508043     0.000000 
  70.851000   415.000000     0.002410   464.464720     0.000000 
  70.859000   454.000000     0.002203   464.422280     0.000000 
  70.867000   455.000000     0.002198   464.380707     0.000000 
  70.875000   410.000000     0.002439   464.339986     0.000000 
  70.883000   434.000000     0.002304   464.300102     0.000000 
  70.891000   518.000000     0.001931   464.261042     0.000000 
  70.899000   513.000000     0.001949   464.222791     0.000000 
  70.907000   481.000000     0.002079   464.185338     0.000000 
  70.915000   477.000000     0.002096   464.148669     0.000000 
  70.923000   480.000000     0.002083   464.112774     0.000000 
  70.931000   457.000000     0.002188   464.077642     0.000000 
  70.939000   482.000000     0.002075   464.043262     0.000000 
  70.947000   481.000000     0.002079   464.009625     0.000000 
  70.955000   469.000000     0.002132   463.976723     0.000000 
  70.963000   443.000000     0.002257   463.944546     0.000000 
  70.971000   446.000000     0.002242   463.913087     0.000000 
  70.979000   473.000000     0.002114   463.882339     0.000000 
  70.987000   502.000000     0.001992   463.852295     0.000000 
  70.995000   474.000000     0.002110   463.822949     0.000000 
  71.003000   438.000000     0.002283   463.794296     0.000000 
  71.011000   466.000000     0.002146   463.766332     0.000000 
  71.019000   468.000000     0.002137   463.739052     0.000000 
  71.027000   453.000000     0.002208   463.712452     0.000000 
  71.035000   453.000000     0.002208   463.686530     0.000000 
  71.043000   432.000000     0.002315   463.661283     0.000000 
  71.051000   447.000000     0.002237   463.636710     0.000000 
  71.059000   444.000000     0.002252   463.612810     0.000000 
  71.067000   432.000000     0.002315   463.589583     0.000000 
  71.075000   470.000000     0.002128   463.567029     0.000000 
  71.083000   492.000000     0.002033   463.545149     0.000000 
  71.091000   421.000000     0.002375   463.523945     0.000000 
  71.099000   412.000000     0.002427   463.503420     0.000000 
  71.107000   427.000000     0.002342   463.483577     0.000000 
  71.115000   440.000000     0.002273   463.464420     0.000000 
  71.123000   424.000000     0.002358   463.445954     0.000000 
  71.131000   429.000000     0.002331   463.428186     0.000000 
  71.139000   443.000000     0.002257   463.411122     0.000000 
  71.147000   435.000000     0.002299   463.394769     0.000000 
  71.155000   458.000000     0.002183   463.379137     0.000000 
  71.163000   459.000000     0.002179   463.364236     0.000000 
  71.171000   458.000000     0.002183   464.917041     0.000000 
  71.179000   468.000000     0.002137   464.917008     0.000000 
  71.187000   439.000000     0.002278   464.917914     0.000000 
  71.195000   431.000000     0.002320   464.919775     0.000000 
  71.203000   464.000000     0.002155   464.922612     0.000000 
  71.211000   465.000000     0.002151   464.926443     0.000000 
  71.219000   460.000000     0.002174   464.931292     0.000000 
  71.227000   431.000000     0.002320   464.937182     0.000000 
  71.235000   420.000000     0.002381   464.944139     0.000000 
  71.243000   420.000000     0.002381   464.952189     0.000000 
  71.251000   445.000000     0.002247   464.961363     0.000000 
  71.259000   456.000000     0.002193   464.971691     0.000000 
  71.267000   463.000000     0.002160   464.983209     0.000000 
  71.275000   437.000000     0.002288   464.995952     0.000000 
  71.283000   480.000000     0.002083   465.009960     0.000000 
  71.291000   439.000000     0.002278   465.025275     0.000000 
  71.299000   493.000000     0.002028   465.041942     0.000000 
  71.307000   459.000000     0.002179   465.060009     0.000000 
  71.315000   507.000000     0.001972   465.079529     0.000000 
  71.323000   494.000000     0.002024   465.100558     0.000000 
  71.331000   461.000000     0.002169   465.123156     0.000000 
  71.339000   461.000000     0.002169   465.147388     0.000000 
  71.347000   478.000000     0.002092   465.173324     0.000000 
  71.355000   461.000000     0.002169   465.201039     0.000000 
  71.363000   463.000000     0.002160   465.230614     0.000000 
  71.371000   481.000000     0.002079   465.262137     0.000000 
  71.379000   455.000000     0.002198   465.295702     0.000000 
  71.387000   432.000000     0.002315   465.331413     0.000000 
  71.395000   440.000000     0.002273   465.369379     0.000000 
  71.403000   447.000000     0.002237   465.409721     0.000000 
  71.411000   451.000000     0.002217   465.452568     0.000000 
  71.419000   453.000000     0.002208   465.247934     0.000000 
  71.427000   423.000000     0.002364   465.298351     0.000000 
  71.435000   466.000000     0.002146   465.351708     0.000000 
  71.443000   451.000000     0.002217   465.408190     0.000000 
  71.451000   460.000000     0.002174   465.467994     0.000000 
  71.459000   486.000000     0.002058   464.264920     0.000000 
  71.467000   447.000000     0.002237   464.342793     0.000000 
  71.475000   498.000000     0.002008   464.424571     0.000000 
  71.483000   460.000000     0.002174   464.510544     0.000000 
  71.491000   418.000000     0.002392   464.601030     0.000000 
  71.499000   440.000000     0.002273   464.696380     0.000000 
  71.507000   411.000000     0.002433   464.796982     0.000000 
  71.515000   445.000000     0.002247   464.903262     0.000000 
  71.523000   434.000000     0.002304   465.015696     0.000000 
  71.531000   444.000000     0.002252   465.134809     0.000000 
  71.539000   440.000000     0.002273   465.261189     0.000000 
  71.547000   424.000000     0.002358   465.395489     0.000000 
  71.555000   425.000000     0.002353   465.538442     0.000000 
  71.563000   432.000000     0.002315   465.690866     0.000000 
  71.571000   433.000000     0.002309   465.853685     0.000000 
  71.579000   435.000000     0.002299   466.027938     0.000000 
  71.587000   467.000000     0.002141   466.214801     0.000000 
  71.595000   499.000000     0.002004   466.415609     0.000000 
  71.603000   448.000000     0.002232   466.631882     0.000000 
  71.611000   471.000000     0.002123   466.865361     0.000000 
  71.619000   448.000000     0.002232   467.118050     0.000000 
  71.627000   437.000000     0.002288   467.392272     0.000000 
  71.635000   474.000000     0.002110   467.690742     0.000000 
  71.643000   396.000000     0.002525   468.016665     0.000000 
  71.651000   450.000000     0.002222   468.373872     0.000000 
  71.659000   462.000000     0.002165   468.766998     0.000000 
  71.667000   434.000000     0.002304   469.201732     0.000000 
  71.675000   439.000000     0.002278   469.685144     0.000000 
  71.683000   470.000000     0.002128   470.226116     0.000000 
  71.691000   475.000000     0.002105   470.835890     0.000000 
  71.699000   479.000000     0.002088   471.528737     0.000000 
  71.707000   477.000000     0.002096   472.322737     0.000000 
  71.715000   484.000000     0.002066   473.240639     0.000000 
  71.723000   483.000000     0.002070   474.310723     0.000000 
  71.731000   486.000000     0.002058   475.567574     0.000000 
  71.739000   463.000000     0.002160   477.052617     0.000000 
  71.747000   444.000000     0.002252   478.814261     0.000000 
  71.755000   468.000000     0.002137   480.907471     0.000000 
  71.763000   491.000000     0.002037   483.392596     0.000000 
  71.771000   476.000000     0.002101   486.333284     0.000000 
  71.779000   500.000000     0.002000   489.793253     0.000000 
  71.787000   528.000000     0.001894   493.831565     0.000000 
  71.795000   479.000000     0.002088   498.495665     0.000000 
  71.803000   452.000000     0.002212   503.810841     0.000000 
  71.811000   484.000000     0.002066   509.763901     0.000000 
  71.819000   491.000000     0.002037   516.278269     0.000000 
  71.827000   560.000000     0.001786   523.178812     0.000000 
  71.835000   547.000000     0.001828   530.150219     0.000000 
  71.843000   552.000000     0.001812   536.705707     0.000000 
  71.851000   580.000000     0.001724   542.200954     0.000000 
  71.859000   600.000000     0.001667   545.934207     0.000000 
  71.867000   629.000000     0.001590   547.337705     0.000000 
  71.875000   630.000000     0.001587   546.185041     0.000000 
  71.883000   620.000000     0.001613   542.685569     0.000000 
  71.891000   584.000000     0.001712   537.396960     0.000000 
  71.899000   568.000000     0.001761   531.019915     0.000000 
  71.907000   535.000000     0.001869   524.204018     0.000000 
  71.915000   527.000000     0.001898   517.443529     0.000000 
  71.923000   500.000000     0.002000   511.060642     0.000000 
  71.931000   482.000000     0.002075   505.235711     0.000000 
  71.939000   505.000000     0.001980   500.048896     0.000000 
  71.947000   523.000000     0.001912   495.515734     0.000000 
  71.955000   504.000000     0.001984   491.612457     0.000000 
  71.963000   462.000000     0.002165   488.292615     0.000000 
  71.971000   483.000000     0.002070   485.497806     0.000000 
  71.979000   477.000000     0.002096   483.164761     0.000000 
  71.987000   472.000000     0.002119   481.230144     0.000000 
  71.995000   490.000000     0.002041   479.633839     0.000000 
  72.003000   466.000000     0.002146   478.321084     0.000000 
  72.011000   443.000000     0.002257   477.243681     0.000000 
  72.019000   446.000000     0.002242   476.360454     0.000000 
  72.027000   507.000000     0.001972   475.637140     0.000000 
  72.035000   414.000000     0.002415   475.045863     0.000000 
  72.043000   406.000000     0.002463   474.564390     0.000000 
  72.051000   469.000000     0.002132   474.175267     0.000000 
  72.059000   464.000000     0.002155   473.864981     0.000000 
  72.067000   468.000000     0.002137   473.623185     0.000000 
  72.075000   478.000000     0.002092   473.442043     0.000000 
  72.083000   501.000000     0.001996   473.315701     0.000000 
  72.091000   508.000000     0.001969   473.239880     0.000000 
  72.099000   489.000000     0.002045   473.211573     0.000000 
  72.107000   469.000000     0.002132   473.228849     0.000000 
  72.115000   482.000000     0.002075   473.290721     0.000000 
  72.123000   472.000000     0.002119   473.397099     0.000000 
  72.131000   459.000000     0.002179   473.548793     0.000000 
  72.139000   480.000000     0.002083   473.747593     0.000000 
  72.147000   500.000000     0.002000   473.996408     0.000000 
  72.155000   491.000000     0.002037   474.299487     0.000000 
  72.163000   450.000000     0.002222   474.662730     0.000000 
  72.171000   485.000000     0.002062   475.094090     0.000000 
  72.179000   477.000000     0.002096   475.604067     0.000000 
  72.187000   473.000000     0.002114   476.206286     0.000000 
  72.195000   482.000000     0.002075   476.918118     0.000000 
  72.203000   443.000000     0.002257   477.761291     0.000000 
  72.211000   461.000000     0.002169   478.762409     0.000000 
  72.219000   484.000000     0.002066   479.953271     0.000000 
  72.227000   474.000000     0.002110   481.370863     0.000000 
  72.235000   462.000000     0.002165   483.056910     0.000000 
  72.243000   516.000000     0.001938   485.056847     0.000000 
  72.251000   509.000000     0.001965   487.418072     0.000000 
  72.259000   452.000000     0.002212   490.187292     0.000000 
  72.267000   418.000000     0.002392   493.406588     0.000000 
  72.275000   456.000000     0.002193   497.107521     0.000000 
  72.283000   469.000000     0.002132   501.302013     0.000000 
  72.291000   463.000000     0.002160   505.968140     0.000000 
  72.299000   481.000000     0.002079   511.028778     0.000000 
  72.307000   502.000000     0.001992   516.726498     0.000000 
  72.315000   520.000000     0.001923   521.981043     0.000000 
  72.323000   527.000000     0.001898   526.785907     0.000000 
  72.331000   563.000000     0.001776   530.632672     0.000000 
  72.339000   576.000000     0.001736   533.011644     0.000000 
  72.347000   594.000000     0.001684   533.568909     0.000000 
  72.355000   581.000000     0.001721   532.243809     0.000000 
  72.363000   528.000000     0.001894   529.294744     0.000000 
  72.371000   525.000000     0.001905   525.194142     0.000000 
  72.379000   469.000000     0.002132   520.467032     0.000000 
  72.387000   486.000000     0.002058   515.564910     0.000000 
  72.395000   508.000000     0.001969   510.812255     0.000000 
  72.403000   464.000000     0.002155   506.409667     0.000000 
  72.411000   501.000000     0.001996   502.461971     0.000000 
  72.419000   459.000000     0.002179   499.008965     0.000000 
  72.427000   438.000000     0.002283   496.049685     0.000000 
  72.435000   473.000000     0.002114   493.559035     0.000000 
  72.443000   506.000000     0.001976   491.498516     0.000000 
  72.451000   461.000000     0.002169   489.823129     0.000000 
  72.459000   447.000000     0.002237   488.485926     0.000000 
  72.467000   470.000000     0.002128   487.441073     0.000000 
  72.475000   481.000000     0.002079   486.645904     0.000000 
  72.483000   491.000000     0.002037   486.062193     0.000000 
  72.491000   499.000000     0.002004   485.656801     0.000000 
  72.499000   478.000000     0.002092   485.401828     0.000000 
  72.507000   475.000000     0.002105   485.274395     0.000000 
  72.515000   497.000000     0.002012   485.256183     0.000000 
  72.523000   487.000000     0.002053   485.332839     0.000000 
  72.531000   475.000000     0.002105   485.493346     0.000000 
  72.539000   485.000000     0.002062   485.729413     0.000000 
  72.547000   485.000000     0.002062   486.034941     0.000000 
  72.555000   499.000000     0.002004   486.405566     0.000000 
  72.563000   436.000000     0.002294   486.838302     0.000000 
  72.571000   461.000000     0.002169   487.331261     0.000000 
  72.579000   427.000000     0.002342   487.883446     0.000000 
  72.587000   439.000000     0.002278   488.494606     0.000000 
  72.595000   499.000000     0.002004   489.165129     0.000000 
  72.603000   437.000000     0.002288   489.895976     0.000000 
  72.611000   454.000000     0.002203   490.688635     0.000000 
  72.619000   425.000000     0.002353   491.545102     0.000000 
  72.627000   442.000000     0.002262   492.467872     0.000000 
  72.635000   475.000000     0.002105   493.459939     0.000000 
  72.643000   478.000000     0.002092   494.524815     0.000000 
  72.651000   455.000000     0.002198   495.666553     0.000000 
  72.659000   462.000000     0.002165   496.889781     0.000000 
  72.667000   475.000000     0.002105   498.199742     0.000000 
  72.675000   473.000000     0.002114   499.602349     0.000000 
  72.683000   480.000000     0.002083   501.104250     0.000000 
  72.691000   483.000000     0.002070   502.712900     0.000000 
  72.699000   473.000000     0.002114   504.436651     0.000000 
  72.707000   501.000000     0.001996   506.284855     0.000000 
  72.715000   518.000000     0.001931   508.267990     0.000000 
  72.723000   455.000000     0.002198   510.397795     0.000000 
  72.731000   447.000000     0.002237   512.687440     0.000000 
  72.739000   511.000000     0.001957   515.151725     0.000000 
  72.747000   473.000000     0.002114   517.807291     0.000000 
  72.755000   469.000000     0.002132   520.672907     0.000000 
  72.763000   497.000000     0.002012   523.769774     0.000000 
  72.771000   533.000000     0.001876   527.121900     0.000000 
  72.779000   467.000000     0.002141   530.756553     0.000000 
  72.787000   522.000000     0.001916   534.704801     0.000000 
  72.795000   511.000000     0.001957   539.002175     0.000000 
  72.803000   533.000000     0.001876   543.689502     0.000000 
  72.811000   541.000000     0.001848   548.813951     0.000000 
  72.819000   522.000000     0.001916   554.430400     0.000000 
  72.827000   502.000000     0.001992   560.603235     0.000000 
  72.835000   586.000000     0.001706   567.408749     0.000000 
  72.843000   613.000000     0.001631   574.938396     0.000000 
  72.851000   560.000000     0.001786   583.303169     0.000000 
  72.859000   541.000000     0.001848   592.639483     0.000000 
  72.867000   562.000000     0.001779   603.116937     0.000000 
  72.875000   578.000000     0.001730   614.948329     0.000000 
  72.883000   593.000000     0.001686   628.402181     0.000000 
  72.891000   606.000000     0.001650   643.817780     0.000000 
  72.899000   611.000000     0.001637   661.622370     0.000000 
  72.907000   618.000000     0.001618   682.349531     0.000000 
  72.915000   604.000000     0.001656   706.657140     0.000000 
  72.923000   599.000000     0.001669   735.342572     0.000000 
  72.931000   671.000000     0.001490   769.352135     0.000000 
  72.939000   752.000000     0.001330   809.781343     0.000000 
  72.947000   759.000000     0.001318   857.862385     0.000000 
  72.955000   832.000000     0.001202   914.935075     0.000000 
  72.963000   890.000000     0.001124   982.396907     0.000000 
  72.971000   947.000000     0.001056  1061.625685     0.000000 
  72.979000  1140.000000     0.000877  1153.862569     0.000000 
  72.987000  1212.000000     0.000825  1260.032503     0.000000 
  72.995000  1369.000000     0.000730  1380.461868     0.000000 
  73.003000  1566.000000     0.000639  1514.434600     0.000000 
  73.011000  1733.000000     0.000577  1659.526403     0.000000 
  73.019000  1999.000000     0.000500  1810.717110     0.000000 
  73.027000  2327.000000     0.000430  1959.475434     0.000000 
  73.035000  2689.000000     0.000372  2093.374783     0.000000 
  73.043000  3073.000000     0.000325  2197.157701     0.000000 
  73.051000  3426.000000     0.000292  2255.959279     0.000000 
  73.059000  3726.000000     0.000268  2260.065781     0.000000 
  73.067000  3746.000000     0.000267  2208.762634     0.000000 
  73.075000  3510.000000     0.000285  2110.638394     0.000000 
  73.083000  3218.000000     0.000311  1980.118614     0.000000 
  73.091000  2745.000000     0.000364  1832.654766     0.000000 
  73.099000  2396.000000     0.000417  1681.195235     0.000000 
  73.107000  2040.000000     0.000490  1534.834426     0.000000 
  73.115000  1689.000000     0.000592  1399.048704     0.000000 
  73.123000  1484.000000     0.000674  1276.579363     0.000000 
  73.131000  1336.000000     0.000749  1168.343023     0.000000 
  73.139000  1183.000000     0.000845  1074.132226     0.000000 
  73.147000  1068.000000     0.000936   993.088211     0.000000 
  73.155000   986.000000     0.001014   924.002627     0.000000 
  73.163000   903.000000     0.001107   865.509076     0.000000 
  73.171000   892.000000     0.001121   816.207353     0.000000 
  73.179000   797.000000     0.001255   774.745634     0.000000 
  73.187000   696.000000     0.001437   739.873889     0.000000 
  73.195000   755.000000     0.001325   710.475670     0.000000 
  73.203000   753.000000     0.001328   685.582792     0.000000 
  73.211000   734.000000     0.001362   664.376695     0.000000 
  73.219000   683.000000     0.001464   646.180110     0.000000 
  73.227000   672.000000     0.001488   630.442502     0.000000 
  73.235000   710.000000     0.001408   616.722345     0.000000 
  73.243000   689.000000     0.001451   604.668684     0.000000 
  73.251000   601.000000     0.001664   594.003698     0.000000 
  73.259000   602.000000     0.001661   584.507315     0.000000 
  73.267000   650.000000     0.001538   576.004314     0.000000 
  73.275000   660.000000     0.001515   568.353958     0.000000 
  73.283000   666.000000     0.001502   561.441924     0.000000 
  73.291000   537.000000     0.001862   555.174177     0.000000 
  73.299000   569.000000     0.001757   549.472390     0.000000 
  73.307000   555.000000     0.001802   544.270556     0.000000 
  73.315000   440.000000     0.002273   539.512468     0.000000 
  73.323000   540.000000     0.001852   535.149855     0.000000 
  73.331000   549.000000     0.001821   531.140955     0.000000 
  73.339000   536.000000     0.001866   527.449428     0.000000 
  73.347000   578.000000     0.001730   524.043498     0.000000 
  73.355000   570.000000     0.001754   520.895264     0.000000 
  73.363000   527.000000     0.001898   517.980143     0.000000 
  73.371000   573.000000     0.001745   515.276406     0.000000 
  73.379000   536.000000     0.001866   512.764792     0.000000 
  73.387000   456.000000     0.002193   510.428187     0.000000 
  73.395000   482.000000     0.002075   508.251339     0.000000 
  73.403000   472.000000     0.002119   506.220630     0.000000 
  73.411000   442.000000     0.002262   504.323870     0.000000 
  73.419000   451.000000     0.002217   502.550130     0.000000 
  73.427000   465.000000     0.002151   500.889584     0.000000 
  73.435000   478.000000     0.002092   499.333388     0.000000 
  73.443000   481.000000     0.002079   497.873561     0.000000 
  73.451000   464.000000     0.002155   496.502893     0.000000 
  73.459000   499.000000     0.002004   495.214858     0.000000 
  73.467000   549.000000     0.001821   494.003539     0.000000 
  73.475000   473.000000     0.002114   492.863565     0.000000 
  73.483000   444.000000     0.002252   491.790053     0.000000 
  73.491000   424.000000     0.002358   490.778558     0.000000 
  73.499000   404.000000     0.002475   489.825031     0.000000 
  73.507000   503.000000     0.001988   488.925776     0.000000 
  73.515000   475.000000     0.002105   488.077421     0.000000 
  73.523000   484.000000     0.002066   487.276884     0.000000 
  73.531000   484.000000     0.002066   486.521344     0.000000 
  73.539000   475.000000     0.002105   485.808226     0.000000 
  73.547000   450.000000     0.002222   485.135168     0.000000 
  73.555000   434.000000     0.002304   484.500013     0.000000 
  73.563000   406.000000     0.002463   483.900783     0.000000 
  73.571000   419.000000     0.002387   483.335673     0.000000 
  73.579000   443.000000     0.002257   482.803030     0.000000 
  73.587000   465.000000     0.002151   482.301345     0.000000 
  73.595000   450.000000     0.002222   481.829243     0.000000 
  73.603000   449.000000     0.002227   481.385472     0.000000 
  73.611000   470.000000     0.002128   480.968896     0.000000 
  73.619000   494.000000     0.002024   480.578486     0.000000 
  73.627000   491.000000     0.002037   480.213316     0.000000 
  73.635000   473.000000     0.002114   479.872558     0.000000 
  73.643000   468.000000     0.002137   479.555473     0.000000 
  73.651000   453.000000     0.002208   479.261411     0.000000 
  73.659000   429.000000     0.002331   478.989807     0.000000 
  73.667000   450.000000     0.002222   478.740176     0.000000 
  73.675000   420.000000     0.002381   478.512116     0.000000 
  73.683000   420.000000     0.002381   478.305298     0.000000 
  73.691000   455.000000     0.002198   478.119475     0.000000 
  73.699000   497.000000     0.002012   477.954475     0.000000 
  73.707000   529.000000     0.001890   477.810202     0.000000 
  73.715000   494.000000     0.002024   477.686642     0.000000 
  73.723000   410.000000     0.002439   477.583856     0.000000 
  73.731000   466.000000     0.002146   477.501991     0.000000 
  73.739000   397.000000     0.002519   477.441277     0.000000 
  73.747000   443.000000     0.002257   477.402034     0.000000 
  73.755000   462.000000     0.002165   477.314860     0.000000 
  73.763000   475.000000     0.002105   477.320485     0.000000 
  73.771000   470.000000     0.002128   477.349115     0.000000 
  73.779000   505.000000     0.001980   477.401483     0.000000 
  73.787000   491.000000     0.002037   477.478443     0.000000 
  73.795000   483.000000     0.002070   477.580982     0.000000 
  73.803000   490.000000     0.002041   477.710233     0.000000 
  73.811000   468.000000     0.002137   477.867486     0.000000 
  73.819000   464.000000     0.002155   478.054211     0.000000 
  73.827000   466.000000     0.002146   478.272070     0.000000 
  73.835000   469.000000     0.002132   478.522942     0.000000 
  73.843000   509.000000     0.001965   478.808948     0.000000 
  73.851000   443.000000     0.002257   479.132480     0.000000 
  73.859000   430.000000     0.002326   479.496236     0.000000 
  73.867000   441.000000     0.002268   479.903256     0.000000 
  73.875000   464.000000     0.002155   480.356972     0.000000 
  73.883000   476.000000     0.002101   480.861259     0.000000 
  73.891000   501.000000     0.001996   481.420497     0.000000 
  73.899000   539.000000     0.001855   482.039648     0.000000 
  73.907000   469.000000     0.002132   482.724337     0.000000 
  73.915000   449.000000     0.002227   483.480960     0.000000 
  73.923000   447.000000     0.002237   484.316808     0.000000 
  73.931000   479.000000     0.002088   485.240211     0.000000 
  73.939000   492.000000     0.002033   486.260726     0.000000 
  73.947000   457.000000     0.002188   487.389366     0.000000 
  73.955000   512.000000     0.001953   488.638883     0.000000 
  73.963000   492.000000     0.002033   490.024152     0.000000 
  73.971000   485.000000     0.002062   491.562656     0.000000 
  73.979000   485.000000     0.002062   493.275140     0.000000 
  73.987000   481.000000     0.002079   495.186494     0.000000 
  73.995000   487.000000     0.002053   497.366609     0.000000 
  74.003000   508.000000     0.001969   499.773540     0.000000 
  74.011000   522.000000     0.001916   502.492647     0.000000 
  74.019000   511.000000     0.001957   505.581471     0.000000 
  74.027000   486.000000     0.002058   509.112313     0.000000 
  74.035000   522.000000     0.001916   513.176065     0.000000 
  74.043000   556.000000     0.001799   517.886535     0.000000 
  74.051000   560.000000     0.001786   523.385007     0.000000 
  74.059000   506.000000     0.001976   529.844630     0.000000 
  74.067000   564.000000     0.001773   537.474044     0.000000 
  74.075000   549.000000     0.001821   546.519527     0.000000 
  74.083000   611.000000     0.001637   557.264826     0.000000 
  74.091000   571.000000     0.001751   570.027794     0.000000 
  74.099000   596.000000     0.001678   585.152821     0.000000 
  74.107000   606.000000     0.001650   602.997722     0.000000 
  74.115000   637.000000     0.001570   623.912804     0.000000 
  74.123000   652.000000     0.001534   648.207888     0.000000 
  74.131000   768.000000     0.001302   676.099500     0.000000 
  74.139000   765.000000     0.001307   707.625547     0.000000 
  74.147000   804.000000     0.001244   742.510503     0.000000 
  74.155000   833.000000     0.001200   779.967581     0.000000 
  74.163000   878.000000     0.001139   818.449946     0.000000 
  74.171000   918.000000     0.001089   855.430216     0.000000 
  74.179000   995.000000     0.001005   887.393682     0.000000 
  74.187000  1031.000000     0.000970   910.296644     0.000000 
  74.195000  1060.000000     0.000943   920.593524     0.000000 
  74.203000  1070.000000     0.000935   916.494278     0.000000 
  74.211000  1056.000000     0.000947   898.710026     0.000000 
  74.219000  1035.000000     0.000966   870.148507     0.000000 
  74.227000   992.000000     0.001008   834.786410     0.000000 
  74.235000   978.000000     0.001022   796.413527     0.000000 
  74.243000   898.000000     0.001114   758.122985     0.000000 
  74.251000   788.000000     0.001269   721.825094     0.000000 
  74.259000   730.000000     0.001370   688.612828     0.000000 
  74.267000   682.000000     0.001466   658.960862     0.000000 
  74.275000   719.000000     0.001391   632.950442     0.000000 
  74.283000   668.000000     0.001497   610.431371     0.000000 
  74.291000   629.000000     0.001590   591.127153     0.000000 
  74.299000   599.000000     0.001669   574.700393     0.000000 
  74.307000   564.000000     0.001773   560.793363     0.000000 
  74.315000   566.000000     0.001767   549.053601     0.000000 
  74.323000   532.000000     0.001880   539.150136     0.000000 
  74.331000   536.000000     0.001866   530.783321     0.000000 
  74.339000   532.000000     0.001880   523.689929     0.000000 
  74.347000   496.000000     0.002016   517.644634     0.000000 
  74.355000   532.000000     0.001880   512.458783     0.000000 
  74.363000   531.000000     0.001883   507.977334     0.000000 
  74.371000   543.000000     0.001842   504.074723     0.000000 
  74.379000   554.000000     0.001805   500.650322     0.000000 
  74.387000   538.000000     0.001859   497.623967     0.000000 
  74.395000   496.000000     0.002016   494.931883     0.000000 
  74.403000   480.000000     0.002083   492.523185     0.000000 
  74.411000   499.000000     0.002004   490.356993     0.000000 
  74.419000   508.000000     0.001969   488.400148     0.000000 
  74.427000   519.000000     0.001927   486.625446     0.000000 
  74.435000   563.000000     0.001776   485.010304     0.000000 
  74.443000   528.000000     0.001894   483.535755     0.000000 
  74.451000   474.000000     0.002110   482.185709     0.000000 
  74.459000   503.000000     0.001988   480.946387     0.000000 
  74.467000   496.000000     0.002016   479.805906     0.000000 
  74.475000   517.000000     0.001934   478.753951     0.000000 
  74.483000   528.000000     0.001894   477.781522     0.000000 
  74.491000   515.000000     0.001942   476.880731     0.000000 
  74.499000   529.000000     0.001890   476.044641     0.000000 
  74.507000   532.000000     0.001880   475.267130     0.000000 
  74.515000   510.000000     0.001961   474.542777     0.000000 
  74.523000   500.000000     0.002000   473.866771     0.000000 
  74.531000   504.000000     0.001984   473.234829     0.000000 
  74.539000   493.000000     0.002028   472.643132     0.000000 
  74.547000   474.000000     0.002110   472.088260     0.000000 
  74.555000   470.000000     0.002128   471.567150     0.000000 
  74.563000   495.000000     0.002020   471.077051     0.000000 
  74.571000   481.000000     0.002079   470.615485     0.000000 
  74.579000   471.000000     0.002123   470.180215     0.000000 
  74.587000   479.000000     0.002088   469.769221     0.000000 
  74.595000   486.000000     0.002058   469.380673     0.000000 
  74.603000   499.000000     0.002004   469.012911     0.000000 
  74.611000   498.000000     0.002008   468.664424     0.000000 
  74.619000   474.000000     0.002110   468.333839     0.000000 
  74.627000   477.000000     0.002096   468.019903     0.000000 
  74.635000   537.000000     0.001862   467.721470     0.000000 
  74.643000   529.000000     0.001890   467.437492     0.000000 
  74.651000   461.000000     0.002169   467.167010     0.000000 
  74.659000   511.000000     0.001957   466.909143     0.000000 
  74.667000   543.000000     0.001842   466.663081     0.000000 
  74.675000   485.000000     0.002062   466.428080     0.000000 
  74.683000   471.000000     0.002123   466.203452     0.000000 
  74.691000   517.000000     0.001934   465.988566     0.000000 
  74.699000   534.000000     0.001873   465.782835     0.000000 
  74.707000   509.000000     0.001965   465.585720     0.000000 
  74.715000   494.000000     0.002024   465.396718     0.000000 
  74.723000   484.000000     0.002066   465.215365     0.000000 
  74.731000   458.000000     0.002183   465.041230     0.000000 
  74.739000   469.000000     0.002132   464.873913     0.000000 
  74.747000   497.000000     0.002012   464.713041     0.000000 
  74.755000   508.000000     0.001969   464.558267     0.000000 
  74.763000   510.000000     0.001961   464.409269     0.000000 
  74.771000   517.000000     0.001934   464.265744     0.000000 
  74.779000   518.000000     0.001931   464.127412     0.000000 
  74.787000   508.000000     0.001969   463.994008     0.000000 
  74.795000   512.000000     0.001953   463.865288     0.000000 
  74.803000   481.000000     0.002079   463.741021     0.000000 
  74.811000   513.000000     0.001949   463.620991     0.000000 
  74.819000   480.000000     0.002083   463.504995     0.000000 
  74.827000   485.000000     0.002062   463.392845     0.000000 
  74.835000   500.000000     0.002000   463.284361     0.000000 
  74.843000   505.000000     0.001980   463.179376     0.000000 
  74.851000   495.000000     0.002020   463.077733     0.000000 
  74.859000   432.000000     0.002315   462.979282     0.000000 
  74.867000   521.000000     0.001919   462.883886     0.000000 
  74.875000   479.000000     0.002088   462.791411     0.000000 
  74.883000   400.000000     0.002500   462.701735     0.000000 
  74.891000   474.000000     0.002110   462.614740     0.000000 
  74.899000   527.000000     0.001898   462.530315     0.000000 
  74.907000   501.000000     0.001996   462.448357     0.000000 
  74.915000   497.000000     0.002012   462.368766     0.000000 
  74.923000   504.000000     0.001984   462.291451     0.000000 
  74.931000   492.000000     0.002033   462.216322     0.000000 
  74.939000   515.000000     0.001942   462.143296     0.000000 
  74.947000   523.000000     0.001912   460.516633     0.000000 
  74.955000   501.000000     0.001996   460.460645     0.000000 
  74.963000   523.000000     0.001912   460.406372     0.000000 
  74.971000   511.000000     0.001957   460.353751     0.000000 
  74.979000   485.000000     0.002062   460.302720     0.000000 
  74.987000   480.000000     0.002083   460.253223     0.000000 
  74.995000   501.000000     0.001996   460.205204     0.000000 
  75.003000   486.000000     0.002058   460.158613     0.000000 
  75.011000   471.000000     0.002123   460.113400     0.000000 
  75.019000   474.000000     0.002110   460.069520     0.000000 
  75.027000   501.000000     0.001996   460.026929     0.000000 
  75.035000   516.000000     0.001938   459.985586     0.000000 
  75.043000   496.000000     0.002016   459.945453     0.000000 
  75.051000   526.000000     0.001901   459.906491     0.000000 
  75.059000   475.000000     0.002105   459.868667     0.000000 
  75.067000   469.000000     0.002132   459.831948     0.000000 
  75.075000   534.000000     0.001873   459.796303     0.000000 
  75.083000   488.000000     0.002049   459.761703     0.000000 
  75.091000   481.000000     0.002079   459.728121     0.000000 
  75.099000   513.000000     0.001949   459.695532     0.000000 
  75.107000   499.000000     0.002004   459.663910     0.000000 
  75.115000   465.000000     0.002151   459.633234     0.000000 
  75.123000   492.000000     0.002033   459.603483     0.000000 
  75.131000   510.000000     0.001961   459.574638     0.000000 
  75.139000   479.000000     0.002088   459.546680     0.000000 
  75.147000   500.000000     0.002000   459.519593     0.000000 
  75.155000   516.000000     0.001938   459.493362     0.000000 
  75.163000   435.000000     0.002299   459.467973     0.000000 
  75.171000   431.000000     0.002320   459.443414     0.000000 
  75.179000   476.000000     0.002101   459.419673     0.000000 
  75.187000   466.000000     0.002146   459.396740     0.000000 
  75.195000   512.000000     0.001953   459.374608     0.000000 
  75.203000   474.000000     0.002110   459.353269     0.000000 
  75.211000   486.000000     0.002058   459.332717     0.000000 
  75.219000   485.000000     0.002062   459.312948     0.000000 
  75.227000   547.000000     0.001828   459.293959     0.000000 
  75.235000   538.000000     0.001859   459.275747     0.000000 
  75.243000   464.000000     0.002155   459.258314     0.000000 
  75.251000   501.000000     0.001996   459.241659     0.000000 
  75.259000   471.000000     0.002123   459.225786     0.000000 
  75.267000   495.000000     0.002020   459.210699     0.000000 
  75.275000   527.000000     0.001898   459.196404     0.000000 
  75.283000   526.000000     0.001901   459.182908     0.000000 
  75.291000   493.000000     0.002028   459.170221     0.000000 
  75.299000   484.000000     0.002066   459.158354     0.000000 
  75.307000   497.000000     0.002012   459.147319     0.000000 
  75.315000   497.000000     0.002012   459.137134     0.000000 
  75.323000   475.000000     0.002105   459.127814     0.000000 
  75.331000   469.000000     0.002132   459.119379     0.000000 
  75.339000   487.000000     0.002053   459.111852     0.000000 
  75.347000   483.000000     0.002070   459.105258     0.000000 
  75.355000   474.000000     0.002110   459.099624     0.000000 
  75.363000   491.000000     0.002037   459.094981     0.000000 
  75.371000   464.000000     0.002155   459.091363     0.000000 
  75.379000   491.000000     0.002037   459.088809     0.000000 
  75.387000   478.000000     0.002092   459.087359     0.000000 
  75.395000   516.000000     0.001938   459.087060     0.000000 
  75.403000   458.000000     0.002183   459.087962     0.000000 
  75.411000   492.000000     0.002033   459.090121     0.000000 
  75.419000   505.000000     0.001980   459.093597     0.000000 
  75.427000   529.000000     0.001890   459.098458     0.000000 
  75.435000   464.000000     0.002155   459.104778     0.000000 
  75.443000   485.000000     0.002062   459.112638     0.000000 
  75.451000   497.000000     0.002012   459.122126     0.000000 
  75.459000   481.000000     0.002079   459.133341     0.000000 
  75.467000   502.000000     0.001992   459.146392     0.000000 
  75.475000   479.000000     0.002088   459.161396     0.000000 
  75.483000   479.000000     0.002088   459.178486     0.000000 
  75.491000   485.000000     0.002062   459.197806     0.000000 
  75.499000   463.000000     0.002160   459.219517     0.000000 
  75.507000   475.000000     0.002105   459.243796     0.000000 
  75.515000   501.000000     0.001996   459.270841     0.000000 
  75.523000   480.000000     0.002083   459.300869     0.000000 
  75.531000   477.000000     0.002096   459.334123     0.000000 
  75.539000   485.000000     0.002062   459.370875     0.000000 
  75.547000   441.000000     0.002268   459.411426     0.000000 
  75.555000   458.000000     0.002183   459.456114     0.000000 
  75.563000   458.000000     0.002183   459.505319     0.000000 
  75.571000   484.000000     0.002066   459.559465     0.000000 
  75.579000   514.000000     0.001946   459.619031     0.000000 
  75.587000   462.000000     0.002165   459.684559     0.000000 
  75.595000   502.000000     0.001992   459.756659     0.000000 
  75.603000   472.000000     0.002119   459.836025     0.000000 
  75.611000   504.000000     0.001984   459.923449     0.000000 
  75.619000   487.000000     0.002053   460.019832     0.000000 
  75.627000   465.000000     0.002151   460.126210     0.000000 
  75.635000   449.000000     0.002227   460.243776     0.000000 
  75.643000   440.000000     0.002273   460.373914     0.000000 
  75.651000   470.000000     0.002128   460.518237     0.000000 
  75.659000   474.000000     0.002110   460.678643     0.000000 
  75.667000   447.000000     0.002237   460.857382     0.000000 
  75.675000   467.000000     0.002141   461.057153     0.000000 
  75.683000   480.000000     0.002083   461.281225     0.000000 
  75.691000   490.000000     0.002041   461.533594     0.000000 
  75.699000   499.000000     0.002004   461.819198     0.000000 
  75.707000   477.000000     0.002096   462.144170     0.000000 
  75.715000   504.000000     0.001984   462.516155     0.000000 
  75.723000   550.000000     0.001818   462.944681     0.000000 
  75.731000   514.000000     0.001946   463.441563     0.000000 
  75.739000   453.000000     0.002208   464.021332     0.000000 
  75.747000   444.000000     0.002252   464.701626     0.000000 
  75.755000   497.000000     0.002012   465.503517     0.000000 
  75.763000   476.000000     0.002101   466.451693     0.000000 
  75.771000   542.000000     0.001845   467.574420     0.000000 
  75.779000   479.000000     0.002088   468.903203     0.000000 
  75.787000   492.000000     0.002033   470.472016     0.000000 
  75.795000   468.000000     0.002137   472.315890     0.000000 
  75.803000   455.000000     0.002198   474.468496     0.000000 
  75.811000   475.000000     0.002105   476.958019     0.000000 
  75.819000   496.000000     0.002016   479.800178     0.000000 
  75.827000   487.000000     0.002053   482.986710     0.000000 
  75.835000   503.000000     0.001988   486.467571     0.000000 
  75.843000   514.000000     0.001946   490.126673     0.000000 
  75.851000   546.000000     0.001832   493.756153     0.000000 
  75.859000   535.000000     0.001869   497.044074     0.000000 
  75.867000   573.000000     0.001745   499.600527     0.000000 
  75.875000   603.000000     0.001658   501.041993     0.000000 
  75.883000   624.000000     0.001603   501.117745     0.000000 
  75.891000   607.000000     0.001647   499.812129     0.000000 
  75.899000   571.000000     0.001751   497.351415     0.000000 
  75.907000   534.000000     0.001873   494.110022     0.000000 
  75.915000   528.000000     0.001894   490.482756     0.000000 
  75.923000   515.000000     0.001942   486.793448     0.000000 
  75.931000   523.000000     0.001912   483.262445     0.000000 
  75.939000   505.000000     0.001980   480.015693     0.000000 
  75.947000   500.000000     0.002000   477.109861     0.000000 
  75.955000   439.000000     0.002278   474.557201     0.000000 
  75.963000   516.000000     0.001938   472.344185     0.000000 
  75.971000   513.000000     0.001949   470.443696     0.000000 
  75.979000   505.000000     0.001980   468.822464     0.000000 
  75.987000   516.000000     0.001938   467.445467     0.000000 
  75.995000   481.000000     0.002079   466.278508     0.000000 
  76.003000   521.000000     0.001919   465.289728     0.000000 
  76.011000   505.000000     0.001980   464.450440     0.000000 
  76.019000   463.000000     0.002160   463.735512     0.000000 
  76.027000   453.000000     0.002208   463.123434     0.000000 
  76.035000   488.000000     0.002049   462.596164     0.000000 
  76.043000   475.000000     0.002105   462.138810     0.000000 
  76.051000   490.000000     0.002041   461.739247     0.000000 
  76.059000   492.000000     0.002033   461.387688     0.000000 
  76.067000   481.000000     0.002079   461.076277     0.000000 
  76.075000   472.000000     0.002119   460.798711     0.000000 
  76.083000   468.000000     0.002137   460.549920     0.000000 
  76.091000   446.000000     0.002242   459.923924     0.000000 
  76.099000   458.000000     0.002183   459.724497     0.000000 
  76.107000   500.000000     0.002000   459.543585     0.000000 
  76.115000   483.000000     0.002070   459.378886     0.000000 
  76.123000   480.000000     0.002083   459.228461     0.000000 
  76.131000   478.000000     0.002092   459.090662     0.000000 
  76.139000   470.000000     0.002128   458.964077     0.000000 
  76.147000   541.000000     0.001848   458.847490     0.000000 
  76.155000   460.000000     0.002174   458.739843     0.000000 
  76.163000   499.000000     0.002004   458.640216     0.000000 
  76.171000   556.000000     0.001799   458.547802     0.000000 
  76.179000   529.000000     0.001890   458.461894     0.000000 
  76.187000   496.000000     0.002016   458.381867     0.000000 
  76.195000   482.000000     0.002075   458.307168     0.000000 
  76.203000   514.000000     0.001946   458.237309     0.000000 
  76.211000   504.000000     0.001984   458.171853     0.000000 
  76.219000   512.000000     0.001953   458.110414     0.000000 
  76.227000   462.000000     0.002165   458.052644     0.000000 
  76.235000   458.000000     0.002183   457.998233     0.000000 
  76.243000   481.000000     0.002079   457.946903     0.000000 
  76.251000   485.000000     0.002062   457.898403     0.000000 
  76.259000   481.000000     0.002079   457.852507     0.000000 
  76.267000   502.000000     0.001992   457.809012     0.000000 
  76.275000   492.000000     0.002033   457.767733     0.000000 
  76.283000   462.000000     0.002165   457.728502     0.000000 
  76.291000   455.000000     0.002198   457.691168     0.000000 
  76.299000   462.000000     0.002165   457.655594     0.000000 
  76.307000   495.000000     0.002020   457.621652     0.000000 
  76.315000   499.000000     0.002004   457.589228     0.000000 
  76.323000   450.000000     0.002222   457.558218     0.000000 
  76.331000   531.000000     0.001883   457.528524     0.000000 
  76.339000   483.000000     0.002070   457.500060     0.000000 
  76.347000   473.000000     0.002114   457.472743     0.000000 
  76.355000   425.000000     0.002353   457.446500     0.000000 
  76.363000   456.000000     0.002193   457.421262     0.000000 
  76.371000   455.000000     0.002198   457.396967     0.000000 
  76.379000   469.000000     0.002132   457.373554     0.000000 
  76.387000   469.000000     0.002132   457.350972     0.000000 
  76.395000   440.000000     0.002273   457.329170     0.000000 
  76.403000   436.000000     0.002294   457.308102     0.000000 
  76.411000   445.000000     0.002247   457.287725     0.000000 
  76.419000   482.000000     0.002075   457.267999     0.000000 
  76.427000   490.000000     0.002041   457.248888     0.000000 
  76.435000   502.000000     0.001992   457.230357     0.000000 
  76.443000   504.000000     0.001984   457.212374     0.000000 
  76.451000   499.000000     0.002004   457.194910     0.000000 
  76.459000   487.000000     0.002053   457.177936     0.000000 
  76.467000   496.000000     0.002016   457.161426     0.000000 
  76.475000   474.000000     0.002110   457.145357     0.000000 
  76.483000   491.000000     0.002037   457.129705     0.000000 
  76.491000   452.000000     0.002212   457.114450     0.000000 
  76.499000   471.000000     0.002123   457.099571     0.000000 
  76.507000   481.000000     0.002079   457.085050     0.000000 
  76.515000   517.000000     0.001934   457.070869     0.000000 
  76.523000   552.000000     0.001812   457.057012     0.000000 
  76.531000   490.000000     0.002041   457.043463     0.000000 
  76.539000   466.000000     0.002146   457.030207     0.000000 
  76.547000   463.000000     0.002160   457.017231     0.000000 
  76.555000   458.000000     0.002183   457.004522     0.000000 
  76.563000   466.000000     0.002146   456.992068     0.000000 
  76.571000   459.000000     0.002179   456.979858     0.000000 
  76.579000   478.000000     0.002092   456.967879     0.000000 
  76.587000   482.000000     0.002075   456.956123     0.000000 
  76.595000   498.000000     0.002008   456.944580     0.000000 
  76.603000   497.000000     0.002012   456.933239     0.000000 
  76.611000   484.000000     0.002066   456.922093     0.000000 
  76.619000   493.000000     0.002028   456.911134     0.000000 
  76.627000   498.000000     0.002008   456.900353     0.000000 
  76.635000   485.000000     0.002062   456.889744     0.000000 
  76.643000   452.000000     0.002212   456.879299     0.000000 
  76.651000   467.000000     0.002141   456.869011     0.000000 
  76.659000   496.000000     0.002016   456.858875     0.000000 
  76.667000   459.000000     0.002179   456.848884     0.000000 
  76.675000   447.000000     0.002237   456.839033     0.000000 
  76.683000   462.000000     0.002165   456.829315     0.000000 
  76.691000   466.000000     0.002146   456.819727     0.000000 
  76.699000   462.000000     0.002165   456.810263     0.000000 
  76.707000   508.000000     0.001969   456.800919     0.000000 
  76.715000   485.000000     0.002062   456.791689     0.000000 
  76.723000   450.000000     0.002222   456.782570     0.000000 
  76.731000   504.000000     0.001984   456.773558     0.000000 
  76.739000   444.000000     0.002252   456.764649     0.000000 
  76.747000   445.000000     0.002247   456.755839     0.000000 
  76.755000   498.000000     0.002008   456.747125     0.000000 
  76.763000   476.000000     0.002101   456.738503     0.000000 
  76.771000   474.000000     0.002110   456.729969     0.000000 
  76.779000   473.000000     0.002114   456.721522     0.000000 
  76.787000   482.000000     0.002075   456.713158     0.000000 
  76.795000   478.000000     0.002092   456.704875     0.000000 
  76.803000   478.000000     0.002092   456.696668     0.000000 
  76.811000   469.000000     0.002132   456.688537     0.000000 
  76.819000   470.000000     0.002128   456.680478     0.000000 
  76.827000   475.000000     0.002105   456.672489     0.000000 
  76.835000   462.000000     0.002165   456.664569     0.000000 
  76.843000   488.000000     0.002049   456.656713     0.000000 
  76.851000   485.000000     0.002062   456.648922     0.000000 
  76.859000   450.000000     0.002222   456.641192     0.000000 
  76.867000   451.000000     0.002217   456.633521     0.000000 
  76.875000   462.000000     0.002165   456.625909     0.000000 
  76.883000   468.000000     0.002137   456.618352     0.000000 
  76.891000   481.000000     0.002079   456.610850     0.000000 
  76.899000   525.000000     0.001905   456.603401     0.000000 
  76.907000   492.000000     0.002033   456.596002     0.000000 
  76.915000   466.000000     0.002146   456.588654     0.000000 
  76.923000   503.000000     0.001988   456.581353     0.000000 
  76.931000   437.000000     0.002288   456.574099     0.000000 
  76.939000   466.000000     0.002146   456.566891     0.000000 
  76.947000   488.000000     0.002049   456.559726     0.000000 
  76.955000   506.000000     0.001976   456.552605     0.000000 
  76.963000   519.000000     0.001927   456.545525     0.000000 
  76.971000   522.000000     0.001916   456.538485     0.000000 
  76.979000   455.000000     0.002198   456.531485     0.000000 
  76.987000   455.000000     0.002198   456.524523     0.000000 
  76.995000   469.000000     0.002132   456.517598     0.000000 
  77.003000   459.000000     0.002179   456.510710     0.000000 
  77.011000   457.000000     0.002188   456.503857     0.000000 
  77.019000   451.000000     0.002217   456.497038     0.000000 
  77.027000   433.000000     0.002309   456.490252     0.000000 
  77.035000   468.000000     0.002137   456.483499     0.000000 
  77.043000   508.000000     0.001969   456.476778     0.000000 
  77.051000   482.000000     0.002075   456.470088     0.000000 
  77.059000   486.000000     0.002058   456.463427     0.000000 
  77.067000   462.000000     0.002165   456.456796     0.000000 
  77.075000   452.000000     0.002212   456.450194     0.000000 
  77.083000   432.000000     0.002315   456.443620     0.000000 
  77.091000   471.000000     0.002123   456.437072     0.000000 
  77.099000   487.000000     0.002053   456.430551     0.000000 
  77.107000   458.000000     0.002183   456.424056     0.000000 
  77.115000   474.000000     0.002110   456.417587     0.000000 
  77.123000   443.000000     0.002257   456.411142     0.000000 
  77.131000   449.000000     0.002227   456.404721     0.000000 
  77.139000   517.000000     0.001934   456.398323     0.000000 
  77.147000   478.000000     0.002092   456.391949     0.000000 
  77.155000   497.000000     0.002012   456.385597     0.000000 
  77.163000   536.000000     0.001866   456.379267     0.000000 
  77.171000   491.000000     0.002037   456.372958     0.000000 
  77.179000   452.000000     0.002212   456.366670     0.000000 
  77.187000   443.000000     0.002257   456.360403     0.000000 
  77.195000   441.000000     0.002268   456.354155     0.000000 
  77.203000   458.000000     0.002183   456.347927     0.000000 
  77.211000   472.000000     0.002119   456.341719     0.000000 
  77.219000   496.000000     0.002016   456.335529     0.000000 
  77.227000   497.000000     0.002012   456.329357     0.000000 
  77.235000   478.000000     0.002092   456.323203     0.000000 
  77.243000   454.000000     0.002203   456.317067     0.000000 
  77.251000   458.000000     0.002183   456.310948     0.000000 
  77.259000   485.000000     0.002062   456.304846     0.000000 
  77.267000   478.000000     0.002092   456.298760     0.000000 
  77.275000   466.000000     0.002146   456.292690     0.000000 
  77.283000   423.000000     0.002364   456.286637     0.000000 
  77.291000   475.000000     0.002105   456.280598     0.000000 
  77.299000   468.000000     0.002137   456.274575     0.000000 
  77.307000   504.000000     0.001984   456.268567     0.000000 
  77.315000   482.000000     0.002075   456.262573     0.000000 
  77.323000   458.000000     0.002183   456.256594     0.000000 
  77.331000   461.000000     0.002169   456.250628     0.000000 
  77.339000   477.000000     0.002096   456.244677     0.000000 
  77.347000   482.000000     0.002075   456.238739     0.000000 
  77.355000   467.000000     0.002141   456.232814     0.000000 
  77.363000   450.000000     0.002222   456.226902     0.000000 
  77.371000   447.000000     0.002237   456.221003     0.000000 
  77.379000   436.000000     0.002294   456.215116     0.000000 
  77.387000   447.000000     0.002237   456.209242     0.000000 
  77.395000   467.000000     0.002141   456.203379     0.000000 
  77.403000   490.000000     0.002041   456.197529     0.000000 
  77.411000   524.000000     0.001908   456.191690     0.000000 
  77.419000   473.000000     0.002114   456.185862     0.000000 
  77.427000   499.000000     0.002004   456.180046     0.000000 
  77.435000   477.000000     0.002096   456.174241     0.000000 
  77.443000   433.000000     0.002309   456.168447     0.000000 
  77.451000   441.000000     0.002268   456.162663     0.000000 
  77.459000   473.000000     0.002114   456.156890     0.000000 
  77.467000   457.000000     0.002188   456.151127     0.000000 
  77.475000   433.000000     0.002309   456.145374     0.000000 
  77.483000   503.000000     0.001988   456.139631     0.000000 
  77.491000   497.000000     0.002012   456.133898     0.000000 
  77.499000   444.000000     0.002252   456.128174     0.000000 
  77.507000   492.000000     0.002033   456.122460     0.000000 
  77.515000   472.000000     0.002119   456.116756     0.000000 
  77.523000   464.000000     0.002155   456.111060     0.000000 
  77.531000   494.000000     0.002024   456.105374     0.000000 
  77.539000   458.000000     0.002183   456.099696     0.000000 
  77.547000   460.000000     0.002174   456.094027     0.000000 
  77.555000   458.000000     0.002183   456.088367     0.000000 
  77.563000   457.000000     0.002188   456.082716     0.000000 
  77.571000   466.000000     0.002146   456.077072     0.000000 
  77.579000   473.000000     0.002114   456.071437     0.000000 
  77.587000   491.000000     0.002037   456.065810     0.000000 
  77.595000   471.000000     0.002123   456.060191     0.000000 
  77.603000   447.000000     0.002237   456.054580     0.000000 
  77.611000   507.000000     0.001972   456.048977     0.000000 
  77.619000   517.000000     0.001934   456.043381     0.000000 
  77.627000   505.000000     0.001980   456.037793     0.000000 
  77.635000   445.000000     0.002247   456.032212     0.000000 
  77.643000   454.000000     0.002203   456.026639     0.000000 
  77.651000   449.000000     0.002227   456.021072     0.000000 
  77.659000   435.000000     0.002299   456.015513     0.000000 
  77.667000   472.000000     0.002119   456.009961     0.000000 
  77.675000   452.000000     0.002212   456.004416     0.000000 
  77.683000   462.000000     0.002165   455.998878     0.000000 
  77.691000   500.000000     0.002000   456.631037     0.000000 
  77.699000   489.000000     0.002045   456.631030     0.000000 
  77.707000   480.000000     0.002083   456.631102     0.000000 
  77.715000   502.000000     0.001992   456.631254     0.000000 
  77.723000   481.000000     0.002079   456.631486     0.000000 
  77.731000   477.000000     0.002096   456.631800     0.000000 
  77.739000   458.000000     0.002183   456.632198     0.000000 
  77.747000   458.000000     0.002183   456.632681     0.000000 
  77.755000   472.000000     0.002119   456.633249     0.000000 
  77.763000   484.000000     0.002066   456.633905     0.000000 
  77.771000   487.000000     0.002053   456.634650     0.000000 
  77.779000   468.000000     0.002137   456.596425     0.000000 
  77.787000   459.000000     0.002179   456.597678     0.000000 
  77.795000   467.000000     0.002141   456.599020     0.000000 
  77.803000   458.000000     0.002183   456.600452     0.000000 
  77.811000   425.000000     0.002353   456.601977     0.000000 
  77.819000   480.000000     0.002083   456.603596     0.000000 
  77.827000   462.000000     0.002165   456.605310     0.000000 
  77.835000   466.000000     0.002146   456.607122     0.000000 
  77.843000   477.000000     0.002096   456.609033     0.000000 
  77.851000   502.000000     0.001992   456.611045     0.000000 
  77.859000   466.000000     0.002146   456.613160     0.000000 
  77.867000   495.000000     0.002020   456.615380     0.000000 
  77.875000   471.000000     0.002123   456.617707     0.000000 
  77.883000   493.000000     0.002028   456.620142     0.000000 
  77.891000   474.000000     0.002110   456.622689     0.000000 
  77.899000   487.000000     0.002053   456.625348     0.000000 
  77.907000   462.000000     0.002165   456.628123     0.000000 
  77.915000   446.000000     0.002242   456.631015     0.000000 
  77.923000   442.000000     0.002262   456.634027     0.000000 
  77.931000   471.000000     0.002123   456.637161     0.000000 
  77.939000   465.000000     0.002151   456.640419     0.000000 
  77.947000   440.000000     0.002273   456.643804     0.000000 
  77.955000   456.000000     0.002193   456.647319     0.000000 
  77.963000   479.000000     0.002088   456.650965     0.000000 
  77.971000   491.000000     0.002037   456.654746     0.000000 
  77.979000   459.000000     0.002179   456.658665     0.000000 
  77.987000   445.000000     0.002247   456.662723     0.000000 
  77.995000   477.000000     0.002096   456.666925     0.000000 
  78.003000   473.000000     0.002114   456.671272     0.000000 
  78.011000   463.000000     0.002160   456.675768     0.000000 
  78.019000   497.000000     0.002012   456.680416     0.000000 
  78.027000   476.000000     0.002101   456.685220     0.000000 
  78.035000   530.000000     0.001887   456.690181     0.000000 
  78.043000   480.000000     0.002083   456.695304     0.000000 
  78.051000   467.000000     0.002141   456.700593     0.000000 
  78.059000   477.000000     0.002096   456.706050     0.000000 
  78.067000   455.000000     0.002198   456.711679     0.000000 
  78.075000   502.000000     0.001992   456.717484     0.000000 
  78.083000   440.000000     0.002273   456.723469     0.000000 
  78.091000   467.000000     0.002141   456.729637     0.000000 
  78.099000   480.000000     0.002083   456.735993     0.000000 
  78.107000   467.000000     0.002141   456.742541     0.000000 
  78.115000   445.000000     0.002247   456.749284     0.000000 
  78.123000   451.000000     0.002217   456.756228     0.000000 
  78.131000   454.000000     0.002203   456.763377     0.000000 
  78.139000   476.000000     0.002101   456.770735     0.000000 
  78.147000   481.000000     0.002079   456.778308     0.000000 
  78.155000   478.000000     0.002092   456.786099     0.000000 
  78.163000   499.000000     0.002004   456.794115     0.000000 
  78.171000   510.000000     0.001961   456.802359     0.000000 
  78.179000   475.000000     0.002105   456.810838     0.000000 
  78.187000   454.000000     0.002203   456.819557     0.000000 
  78.195000   461.000000     0.002169   456.828522     0.000000 
  78.203000   470.000000     0.002128   456.837738     0.000000 
  78.211000   470.000000     0.002128   456.847212     0.000000 
  78.219000   507.000000     0.001972   456.856949     0.000000 
  78.227000   433.000000     0.002309   456.866956     0.000000 
  78.235000   469.000000     0.002132   456.877239     0.000000 
  78.243000   466.000000     0.002146   456.887805     0.000000 
  78.251000   474.000000     0.002110   456.898661     0.000000 
  78.259000   474.000000     0.002110   456.909815     0.000000 
  78.267000   441.000000     0.002268   456.921273     0.000000 
  78.275000   453.000000     0.002208   456.933043     0.000000 
  78.283000   473.000000     0.002114   456.945133     0.000000 
  78.291000   464.000000     0.002155   456.957551     0.000000 
  78.299000   492.000000     0.002033   456.970305     0.000000 
  78.307000   468.000000     0.002137   456.983404     0.000000 
  78.315000   464.000000     0.002155   456.996858     0.000000 
  78.323000   450.000000     0.002222   457.010674     0.000000 
  78.331000   451.000000     0.002217   457.024863     0.000000 
  78.339000   460.000000     0.002174   457.039434     0.000000 
  78.347000   479.000000     0.002088   457.054397     0.000000 
  78.355000   488.000000     0.002049   457.069764     0.000000 
  78.363000   523.000000     0.001912   457.085544     0.000000 
  78.371000   493.000000     0.002028   457.101749     0.000000 
  78.379000   452.000000     0.002212   457.118391     0.000000 
  78.387000   465.000000     0.002151   457.135480     0.000000 
  78.395000   431.000000     0.002320   457.153031     0.000000 
  78.403000   418.000000     0.002392   457.171055     0.000000 
  78.411000   487.000000     0.002053   457.189566     0.000000 
  78.419000   515.000000     0.001942   457.208578     0.000000 
  78.427000   473.000000     0.002114   457.228104     0.000000 
  78.435000   429.000000     0.002331   457.248159     0.000000 
  78.443000   454.000000     0.002203   457.268759     0.000000 
  78.451000   448.000000     0.002232   457.289920     0.000000 
  78.459000   476.000000     0.002101   457.311657     0.000000 
  78.467000   468.000000     0.002137   457.333988     0.000000 
  78.475000   466.000000     0.002146   457.356930     0.000000 
  78.483000   449.000000     0.002227   457.380502     0.000000 
  78.491000   465.000000     0.002151   457.404723     0.000000 
  78.499000   483.000000     0.002070   457.429611     0.000000 
  78.507000   450.000000     0.002222   457.724157     0.000000 
  78.515000   447.000000     0.002237   457.752785     0.000000 
  78.523000   486.000000     0.002058   457.782174     0.000000 
  78.531000   476.000000     0.002101   457.812350     0.000000 
  78.539000   469.000000     0.002132   458.544549     0.000000 
  78.547000   456.000000     0.002193   458.582449     0.000000 
  78.555000   462.000000     0.002165   458.621290     0.000000 
  78.563000   474.000000     0.002110   458.661101     0.000000 
  78.571000   495.000000     0.002020   458.701912     0.000000 
  78.579000   446.000000     0.002242   458.743754     0.000000 
  78.587000   467.000000     0.002141   458.786659     0.000000 
  78.595000   399.000000     0.002506   458.830661     0.000000 
  78.603000   459.000000     0.002179   458.875794     0.000000 
  78.611000   454.000000     0.002203   458.922096     0.000000 
  78.619000   498.000000     0.002008   458.969604     0.000000 
  78.627000   462.000000     0.002165   459.018358     0.000000 
  78.635000   456.000000     0.002193   459.068399     0.000000 
  78.643000   480.000000     0.002083   459.119769     0.000000 
  78.651000   433.000000     0.002309   459.172515     0.000000 
  78.659000   454.000000     0.002203   459.226682     0.000000 
  78.667000   480.000000     0.002083   459.282319     0.000000 
  78.675000   482.000000     0.002075   459.339477     0.000000 
  78.683000   459.000000     0.002179   459.398210     0.000000 
  78.691000   427.000000     0.002342   459.458573     0.000000 
  78.699000   452.000000     0.002212   459.520624     0.000000 
  78.707000   479.000000     0.002088   459.584425     0.000000 
  78.715000   482.000000     0.002075   459.650039     0.000000 
  78.723000   433.000000     0.002309   459.717532     0.000000 
  78.731000   409.000000     0.002445   459.786976     0.000000 
  78.739000   465.000000     0.002151   459.858441     0.000000 
  78.747000   461.000000     0.002169   459.932007     0.000000 
  78.755000   449.000000     0.002227   460.007753     0.000000 
  78.763000   448.000000     0.002232   460.085763     0.000000 
  78.771000   447.000000     0.002237   460.166126     0.000000 
  78.779000   458.000000     0.002183   460.248936     0.000000 
  78.787000   495.000000     0.002020   460.334290     0.000000 
  78.795000   441.000000     0.002268   460.422292     0.000000 
  78.803000   410.000000     0.002439   460.513049     0.000000 
  78.811000   433.000000     0.002309   460.606677     0.000000 
  78.819000   400.000000     0.002500   460.703294     0.000000 
  78.827000   478.000000     0.002092   460.803028     0.000000 
  78.835000   450.000000     0.002222   460.906012     0.000000 
  78.843000   477.000000     0.002096   461.012387     0.000000 
  78.851000   433.000000     0.002309   461.122302     0.000000 
  78.859000   423.000000     0.002364   461.235913     0.000000 
  78.867000   436.000000     0.002294   461.353387     0.000000 
  78.875000   435.000000     0.002299   461.474900     0.000000 
  78.883000   421.000000     0.002375   461.600638     0.000000 
  78.891000   396.000000     0.002525   461.730797     0.000000 
  78.899000   420.000000     0.002381   461.865586     0.000000 
  78.907000   438.000000     0.002283   462.005226     0.000000 
  78.915000   422.000000     0.002370   462.149953     0.000000 
  78.923000   432.000000     0.002315   462.300017     0.000000 
  78.931000   460.000000     0.002174   462.455681     0.000000 
  78.939000   412.000000     0.002427   462.617230     0.000000 
  78.947000   420.000000     0.002381   462.784963     0.000000 
  78.955000   401.000000     0.002494   462.959200     0.000000 
  78.963000   454.000000     0.002203   463.140284     0.000000 
  78.971000   426.000000     0.002347   463.328578     0.000000 
  78.979000   459.000000     0.002179   463.524472     0.000000 
  78.987000   430.000000     0.002326   463.728382     0.000000 
  78.995000   453.000000     0.002208   463.940754     0.000000 
  79.003000   442.000000     0.002262   464.162065     0.000000 
  79.011000   417.000000     0.002398   464.392827     0.000000 
  79.019000   420.000000     0.002381   464.633589     0.000000 
  79.027000   464.000000     0.002155   464.884942     0.000000 
  79.035000   449.000000     0.002227   465.147520     0.000000 
  79.043000   449.000000     0.002227   465.422007     0.000000 
  79.051000   478.000000     0.002092   465.709140     0.000000 
  79.059000   472.000000     0.002119   466.009714     0.000000 
  79.067000   451.000000     0.002217   466.324588     0.000000 
  79.075000   418.000000     0.002392   466.654691     0.000000 
  79.083000   422.000000     0.002370   467.001030     0.000000 
  79.091000   425.000000     0.002353   467.364696     0.000000 
  79.099000   443.000000     0.002257   467.746876     0.000000 
  79.107000   457.000000     0.002188   468.148857     0.000000 
  79.115000   441.000000     0.002268   468.572044     0.000000 
  79.123000   462.000000     0.002165   469.017968     0.000000 
  79.131000   449.000000     0.002227   469.488299     0.000000 
  79.139000   452.000000     0.002212   469.984867     0.000000 
  79.147000   418.000000     0.002392   470.509676     0.000000 
  79.155000   418.000000     0.002392   471.064923     0.000000 
  79.163000   451.000000     0.002217   471.653025     0.000000 
  79.171000   443.000000     0.002257   472.276645     0.000000 
  79.179000   409.000000     0.002445   472.938719     0.000000 
  79.187000   456.000000     0.002193   473.642490     0.000000 
  79.195000   462.000000     0.002165   474.391556     0.000000 
  79.203000   446.000000     0.002242   475.189902     0.000000 
  79.211000   439.000000     0.002278   476.041967     0.000000 
  79.219000   475.000000     0.002105   476.952692     0.000000 
  79.227000   410.000000     0.002439   477.927602     0.000000 
  79.235000   392.000000     0.002551   478.972877     0.000000 
  79.243000   462.000000     0.002165   480.095458     0.000000 
  79.251000   466.000000     0.002146   481.303153     0.000000 
  79.259000   449.000000     0.002227   482.604773     0.000000 
  79.267000   464.000000     0.002155   484.010283     0.000000 
  79.275000   436.000000     0.002294   485.530990     0.000000 
  79.283000   420.000000     0.002381   487.179763     0.000000 
  79.291000   436.000000     0.002294   488.971292     0.000000 
  79.299000   415.000000     0.002410   490.922402     0.000000 
  79.307000   445.000000     0.002247   493.052440     0.000000 
  79.315000   477.000000     0.002096   495.383733     0.000000 
  79.323000   451.000000     0.002217   498.217146     0.000000 
  79.331000   429.000000     0.002331   501.035211     0.000000 
  79.339000   426.000000     0.002347   504.145876     0.000000 
  79.347000   407.000000     0.002457   507.590700     0.000000 
  79.355000   397.000000     0.002519   511.418916     0.000000 
  79.363000   477.000000     0.002096   515.689230     0.000000 
  79.371000   450.000000     0.002222   520.472082     0.000000 
  79.379000   474.000000     0.002110   525.852490     0.000000 
  79.387000   451.000000     0.002217   531.933575     0.000000 
  79.395000   421.000000     0.002375   538.840855     0.000000 
  79.403000   483.000000     0.002070   546.727371     0.000000 
  79.411000   493.000000     0.002028   555.779641     0.000000 
  79.419000   529.000000     0.001890   566.224365     0.000000 
  79.427000   515.000000     0.001942   578.335678     0.000000 
  79.435000   524.000000     0.001908   592.442571     0.000000 
  79.443000   554.000000     0.001805   608.935791     0.000000 
  79.451000   577.000000     0.001733   628.272940     0.000000 
  79.459000   597.000000     0.001675   650.979383     0.000000 
  79.467000   624.000000     0.001603   677.640370     0.000000 
  79.475000   669.000000     0.001495   708.875784     0.000000 
  79.483000   675.000000     0.001481   745.282225     0.000000 
  79.491000   727.000000     0.001376   787.317243     0.000000 
  79.499000   847.000000     0.001181   835.089768     0.000000 
  79.507000   971.000000     0.001030   888.018656     0.000000 
  79.515000  1110.000000     0.000901   944.352829     0.000000 
  79.523000  1227.000000     0.000815  1000.653329     0.000000 
  79.531000  1412.000000     0.000708  1051.544149     0.000000 
  79.539000  1700.000000     0.000588  1090.240813     0.000000 
  79.547000  1693.000000     0.000591  1110.226229     0.000000 
  79.555000  1791.000000     0.000558  1107.649869     0.000000 
  79.563000  1843.000000     0.000543  1083.047897     0.000000 
  79.571000  1658.000000     0.000603  1041.091380     0.000000 
  79.579000  1517.000000     0.000659   988.563147     0.000000 
  79.587000  1334.000000     0.000750   932.028742     0.000000 
  79.595000  1154.000000     0.000867   876.426952     0.000000 
  79.603000   990.000000     0.001010   824.768194     0.000000 
  79.611000   860.000000     0.001163   778.485895     0.000000 
  79.619000   808.000000     0.001238   737.964006     0.000000 
  79.627000   732.000000     0.001366   702.988317     0.000000 
  79.635000   676.000000     0.001479   673.054858     0.000000 
  79.643000   639.000000     0.001565   647.554216     0.000000 
  79.651000   561.000000     0.001783   625.871107     0.000000 
  79.659000   523.000000     0.001912   607.432931     0.000000 
  79.667000   526.000000     0.001901   591.729939     0.000000 
  79.675000   511.000000     0.001957   578.320509     0.000000 
  79.683000   456.000000     0.002193   566.828971     0.000000 
  79.691000   468.000000     0.002137   556.939923     0.000000 
  79.699000   492.000000     0.002033   548.391135     0.000000 
  79.707000   546.000000     0.001832   540.966116     0.000000 
  79.715000   474.000000     0.002110   534.486965     0.000000 
  79.723000   452.000000     0.002212   528.807828     0.000000 
  79.731000   494.000000     0.002024   523.809128     0.000000 
  79.739000   445.000000     0.002247   519.392643     0.000000 
  79.747000   474.000000     0.002110   515.477392     0.000000 
  79.755000   480.000000     0.002083   511.996278     0.000000 
  79.763000   488.000000     0.002049   508.893391     0.000000 
  79.771000   479.000000     0.002088   506.121866     0.000000 
  79.779000   455.000000     0.002198   503.642181     0.000000 
  79.787000   372.000000     0.002688   501.420830     0.000000 
  79.795000   375.000000     0.002667   499.429260     0.000000 
  79.803000   447.000000     0.002237   497.643037     0.000000 
  79.811000   458.000000     0.002183   496.041175     0.000000 
  79.819000   418.000000     0.002392   494.605594     0.000000 
  79.827000   433.000000     0.002309   493.320679     0.000000 
  79.835000   459.000000     0.002179   492.172922     0.000000 
  79.843000   468.000000     0.002137   491.150624     0.000000 
  79.851000   453.000000     0.002208   490.243647     0.000000 
  79.859000   442.000000     0.002262   489.443210     0.000000 
  79.867000   487.000000     0.002053   488.741715     0.000000 
  79.875000   435.000000     0.002299   488.132609     0.000000 
  79.883000   417.000000     0.002398   487.610257     0.000000 
  79.891000   463.000000     0.002160   487.169846     0.000000 
  79.899000   498.000000     0.002008   486.807299     0.000000 
  79.907000   430.000000     0.002326   486.519207     0.000000 
  79.915000   435.000000     0.002299   486.302770     0.000000 
  79.923000   397.000000     0.002519   486.155750     0.000000 
  79.931000   444.000000     0.002252   486.076433     0.000000 
  79.939000   448.000000     0.002232   486.063603     0.000000 
  79.947000   403.000000     0.002481   486.116517     0.000000 
  79.955000   430.000000     0.002326   486.234892     0.000000 
  79.963000   459.000000     0.002179   486.418898     0.000000 
  79.971000   439.000000     0.002278   486.669156     0.000000 
  79.979000   434.000000     0.002304   486.986742     0.000000 
  79.987000   435.000000     0.002299   487.373202     0.000000 
  79.995000   435.000000     0.002299   487.830565     0.000000 
  80.003000   439.000000     0.002278   488.361374     0.000000 
  80.011000   447.000000     0.002237   488.968715     0.000000 
  80.019000   449.000000     0.002227   489.656260     0.000000 
  80.027000   470.000000     0.002128   490.428317     0.000000 
  80.035000   462.000000     0.002165   491.289890     0.000000 
  80.043000   433.000000     0.002309   492.246757     0.000000 
  80.051000   424.000000     0.002358   493.305552     0.000000 
  80.059000   455.000000     0.002198   494.473871     0.000000 
  80.067000   417.000000     0.002398   495.760395     0.000000 
  80.075000   473.000000     0.002114   497.175033     0.000000 
  80.083000   420.000000     0.002381   498.729097     0.000000 
  80.091000   399.000000     0.002506   500.435504     0.000000 
  80.099000   429.000000     0.002331   502.309018     0.000000 
  80.107000   450.000000     0.002222   504.366540     0.000000 
  80.115000   457.000000     0.002188   506.627451     0.000000 
  80.123000   478.000000     0.002092   509.114030     0.000000 
  80.131000   459.000000     0.002179   511.851950     0.000000 
  80.139000   416.000000     0.002404   514.870885     0.000000 
  80.147000   466.000000     0.002146   518.205246     0.000000 
  80.155000   462.000000     0.002165   521.895080     0.000000 
  80.163000   515.000000     0.001942   525.987178     0.000000 
  80.171000   507.000000     0.001972   530.536442     0.000000 
  80.179000   489.000000     0.002045   535.607576     0.000000 
  80.187000   499.000000     0.002004   541.277185     0.000000 
  80.195000   500.000000     0.002000   547.636374     0.000000 
  80.203000   488.000000     0.002049   554.793972     0.000000 
  80.211000   509.000000     0.001965   562.880498     0.000000 
  80.219000   543.000000     0.001842   572.053013     0.000000 
  80.227000   555.000000     0.001802   582.501002     0.000000 
  80.235000   571.000000     0.001751   594.453390     0.000000 
  80.243000   533.000000     0.001876   608.186741     0.000000 
  80.251000   550.000000     0.001818   624.034525     0.000000 
  80.259000   592.000000     0.001689   642.396985     0.000000 
  80.267000   650.000000     0.001538   663.750487     0.000000 
  80.275000   646.000000     0.001548   688.653925     0.000000 
  80.283000   732.000000     0.001366   717.747498     0.000000 
  80.291000   726.000000     0.001377   751.735302     0.000000 
  80.299000   797.000000     0.001255   791.337542     0.000000 
  80.307000   899.000000     0.001112   837.191581     0.000000 
  80.315000   973.000000     0.001028   889.678372     0.000000 
  80.323000  1059.000000     0.000944   948.664007     0.000000 
  80.331000  1176.000000     0.000850  1013.194236     0.000000 
  80.339000  1265.000000     0.000791  1081.268028     0.000000 
  80.347000  1363.000000     0.000734  1149.881392     0.000000 
  80.355000  1516.000000     0.000660  1215.417903     0.000000 
  80.363000  1708.000000     0.000585  1274.106051     0.000000 
  80.371000  1862.000000     0.000537  1322.046711     0.000000 
  80.379000  2051.000000     0.000488  1354.810946     0.000000 
  80.387000  2160.000000     0.000463  1367.509666     0.000000 
  80.395000  2205.000000     0.000454  1356.227074     0.000000 
  80.403000  2234.000000     0.000448  1320.271682     0.000000 
  80.411000  2209.000000     0.000453  1263.371846     0.000000 
  80.419000  2017.000000     0.000496  1192.611145     0.000000 
  80.427000  1824.000000     0.000548  1115.921624     0.000000 
  80.435000  1611.000000     0.000621  1039.894577     0.000000 
  80.443000  1457.000000     0.000686   968.853082     0.000000 
  80.451000  1245.000000     0.000803   904.992212     0.000000 
  80.459000  1069.000000     0.000935   848.980483     0.000000 
  80.467000   991.000000     0.001009   800.577972     0.000000 
  80.475000   882.000000     0.001134   759.094841     0.000000 
  80.483000   853.000000     0.001172   723.676835     0.000000 
  80.491000   843.000000     0.001186   693.461614     0.000000 
  80.499000   704.000000     0.001420   667.653739     0.000000 
  80.507000   685.000000     0.001460   645.553612     0.000000 
  80.515000   627.000000     0.001595   626.562520     0.000000 
  80.523000   600.000000     0.001667   610.176389     0.000000 
  80.531000   617.000000     0.001621   595.975020     0.000000 
  80.539000   601.000000     0.001664   583.610273     0.000000 
  80.547000   609.000000     0.001642   572.794447     0.000000 
  80.555000   594.000000     0.001684   563.289994     0.000000 
  80.563000   533.000000     0.001876   554.900871     0.000000 
  80.571000   525.000000     0.001905   547.464873     0.000000 
  80.579000   565.000000     0.001770   540.847385     0.000000 
  80.587000   560.000000     0.001786   535.056165     0.000000 
  80.595000   546.000000     0.001832   529.758509     0.000000 
  80.603000   541.000000     0.001848   524.994447     0.000000 
  80.611000   516.000000     0.001938   520.697292     0.000000 
  80.619000   499.000000     0.002004   516.810424     0.000000 
  80.627000   496.000000     0.002016   513.285542     0.000000 
  80.635000   531.000000     0.001883   510.081266     0.000000 
  80.643000   511.000000     0.001957   507.161993     0.000000 
  80.651000   551.000000     0.001815   504.496981     0.000000 
  80.659000   543.000000     0.001842   502.059586     0.000000 
  80.667000   507.000000     0.001972   499.826645     0.000000 
  80.675000   522.000000     0.001916   497.777956     0.000000 
  80.683000   521.000000     0.001919   495.895858     0.000000 
  80.691000   466.000000     0.002146   494.164868     0.000000 
  80.699000   511.000000     0.001957   492.571383     0.000000 
  80.707000   490.000000     0.002041   491.103432     0.000000 
  80.715000   481.000000     0.002079   489.750461     0.000000 
  80.723000   454.000000     0.002203   488.503153     0.000000 
  80.731000   424.000000     0.002358   487.353278     0.000000 
  80.739000   465.000000     0.002151   486.293561     0.000000 
  80.747000   491.000000     0.002037   485.317575     0.000000 
  80.755000   477.000000     0.002096   484.419645     0.000000 
  80.763000   465.000000     0.002151   483.594769     0.000000 
  80.771000   459.000000     0.002179   482.838553     0.000000 
  80.779000   452.000000     0.002212   482.147149     0.000000 
  80.787000   435.000000     0.002299   481.517211     0.000000 
  80.795000   407.000000     0.002457   480.945852     0.000000 
  80.803000   451.000000     0.002217   480.430612     0.000000 
  80.811000   482.000000     0.002075   479.969434     0.000000 
  80.819000   446.000000     0.002242   479.560636     0.000000 
  80.827000   423.000000     0.002364   479.202904     0.000000 
  80.835000   422.000000     0.002370   478.895277     0.000000 
  80.843000   475.000000     0.002105   478.637142     0.000000 
  80.851000   451.000000     0.002217   478.428237     0.000000 
  80.859000   390.000000     0.002564   478.268652     0.000000 
  80.867000   442.000000     0.002262   478.158844     0.000000 
  80.875000   429.000000     0.002331   478.099652     0.000000 
  80.883000   399.000000     0.002506   478.092320     0.000000 
  80.891000   415.000000     0.002410   478.138527     0.000000 
  80.899000   420.000000     0.002381   478.240426     0.000000 
  80.907000   415.000000     0.002410   478.400693     0.000000 
  80.915000   394.000000     0.002538   478.622584     0.000000 
  80.923000   402.000000     0.002488   478.910008     0.000000 
  80.931000   426.000000     0.002347   479.267615     0.000000 
  80.939000   405.000000     0.002469   479.700901     0.000000 
  80.947000   402.000000     0.002488   480.216338     0.000000 
  80.955000   400.000000     0.002500   480.821526     0.000000 
  80.963000   420.000000     0.002381   481.525390     0.000000 
  80.971000   454.000000     0.002203   482.338403     0.000000 
  80.979000   443.000000     0.002257   483.272880     0.000000 
  80.987000   424.000000     0.002358   484.343318     0.000000 
  80.995000   408.000000     0.002451   485.566836     0.000000 
  81.003000   455.000000     0.002198   486.963709     0.000000 
  81.011000   454.000000     0.002203   488.558036     0.000000 
  81.019000   439.000000     0.002278   490.378571     0.000000 
  81.027000   460.000000     0.002174   492.459754     0.000000 
  81.035000   489.000000     0.002045   494.842992     0.000000 
  81.043000   421.000000     0.002375   497.578225     0.000000 
  81.051000   452.000000     0.002212   500.725842     0.000000 
  81.059000   490.000000     0.002041   504.358986     0.000000 
  81.067000   484.000000     0.002066   508.566273     0.000000 
  81.075000   501.000000     0.001996   513.454944     0.000000 
  81.083000   472.000000     0.002119   519.154372     0.000000 
  81.091000   462.000000     0.002165   525.819741     0.000000 
  81.099000   523.000000     0.001912   533.635413     0.000000 
  81.107000   548.000000     0.001825   542.817010     0.000000 
  81.115000   518.000000     0.001931   553.610242     0.000000 
  81.123000   531.000000     0.001883   566.282778     0.000000 
  81.131000   551.000000     0.001815   581.102600     0.000000 
  81.139000   576.000000     0.001736   598.292091     0.000000 
  81.147000   596.000000     0.001678   617.942422     0.000000 
  81.155000   607.000000     0.001647   639.871286     0.000000 
  81.163000   660.000000     0.001515   663.418664     0.000000 
  81.171000   748.000000     0.001337   687.217404     0.000000 
  81.179000   836.000000     0.001196   709.060694     0.000000 
  81.187000   870.000000     0.001149   726.080880     0.000000 
  81.195000   944.000000     0.001059   735.418293     0.000000 
  81.203000   926.000000     0.001080   735.245701     0.000000 
  81.211000   909.000000     0.001100   725.576222     0.000000 
  81.219000   897.000000     0.001115   708.257103     0.000000 
  81.227000   835.000000     0.001198   686.154318     0.000000 
  81.235000   841.000000     0.001189   662.129817     0.000000 
  81.243000   718.000000     0.001393   638.379289     0.000000 
  81.251000   660.000000     0.001515   616.258980     0.000000 
  81.259000   645.000000     0.001550   596.420781     0.000000 
  81.267000   573.000000     0.001745   579.041896     0.000000 
  81.275000   565.000000     0.001770   564.028362     0.000000 
  81.283000   500.000000     0.002000   551.156475     0.000000 
  81.291000   511.000000     0.001957   540.157761     0.000000 
  81.299000   502.000000     0.001992   530.764473     0.000000 
  81.307000   506.000000     0.001976   522.730991     0.000000 
  81.315000   479.000000     0.002088   515.841826     0.000000 
  81.323000   457.000000     0.002188   509.912728     0.000000 
  81.331000   489.000000     0.002045   504.788576     0.000000 
  81.339000   500.000000     0.002000   500.339995     0.000000 
  81.347000   464.000000     0.002155   496.459684     0.000000 
  81.355000   445.000000     0.002247   493.058906     0.000000 
  81.363000   457.000000     0.002188   490.064345     0.000000 
  81.371000   438.000000     0.002283   487.415384     0.000000 
  81.379000   429.000000     0.002331   485.061811     0.000000 
  81.387000   491.000000     0.002037   482.961903     0.000000 
  81.395000   500.000000     0.002000   481.080862     0.000000 
  81.403000   476.000000     0.002101   479.389537     0.000000 
  81.411000   448.000000     0.002232   477.863393     0.000000 
  81.419000   471.000000     0.002123   475.850688     0.000000 
  81.427000   437.000000     0.002288   474.601140     0.000000 
  81.435000   433.000000     0.002309   473.463271     0.000000 
  81.443000   396.000000     0.002525   472.424175     0.000000 
  81.451000   382.000000     0.002618   471.472737     0.000000 
  81.459000   421.000000     0.002375   470.599349     0.000000 
  81.467000   440.000000     0.002273   469.795671     0.000000 
  81.475000   470.000000     0.002128   469.054442     0.000000 
  81.483000   458.000000     0.002183   468.369314     0.000000 
  81.491000   463.000000     0.002160   467.734726     0.000000 
  81.499000   459.000000     0.002179   467.145784     0.000000 
  81.507000   456.000000     0.002193   466.598174     0.000000 
  81.515000   457.000000     0.002188   466.088081     0.000000 
  81.523000   430.000000     0.002326   465.612119     0.000000 
  81.531000   424.000000     0.002358   465.167280     0.000000 
  81.539000   466.000000     0.002146   464.750882     0.000000 
  81.547000   486.000000     0.002058   464.360528     0.000000 
  81.555000   453.000000     0.002208   463.994071     0.000000 
  81.563000   431.000000     0.002320   463.649585     0.000000 
  81.571000   425.000000     0.002353   463.325337     0.000000 
  81.579000   419.000000     0.002387   463.019765     0.000000 
  81.587000   389.000000     0.002571   462.731459     0.000000 
  81.595000   481.000000     0.002079   462.459140     0.000000 
  81.603000   486.000000     0.002058   462.201654     0.000000 
  81.611000   432.000000     0.002315   461.957949     0.000000 
  81.619000   432.000000     0.002315   461.727068     0.000000 
  81.627000   441.000000     0.002268   461.508142     0.000000 
  81.635000   402.000000     0.002488   462.561859     0.000000 
  81.643000   373.000000     0.002681   462.374292     0.000000 
  81.651000   420.000000     0.002381   462.196608     0.000000 
  81.659000   434.000000     0.002304   462.028201     0.000000 
  81.667000   439.000000     0.002278   461.868514     0.000000 
  81.675000   436.000000     0.002294   461.717037     0.000000 
  81.683000   450.000000     0.002222   461.573299     0.000000 
  81.691000   424.000000     0.002358   461.436869     0.000000 
  81.699000   409.000000     0.002445   461.307348     0.000000 
  81.707000   409.000000     0.002445   461.184370     0.000000 
  81.715000   406.000000     0.002463   461.067597     0.000000 
  81.723000   405.000000     0.002469   460.956716     0.000000 
  81.731000   389.000000     0.002571   460.851439     0.000000 
  81.739000   406.000000     0.002463   460.751501     0.000000 
  81.747000   409.000000     0.002445   460.656654     0.000000 
  81.755000   426.000000     0.002347   460.566672     0.000000 
  81.763000   428.000000     0.002336   460.481344     0.000000 
  81.771000   424.000000     0.002358   460.400476     0.000000 
  81.779000   422.000000     0.002370   460.323888     0.000000 
  81.787000   378.000000     0.002646   460.251414     0.000000 
  81.795000   448.000000     0.002232   460.182903     0.000000 
  81.803000   456.000000     0.002193   460.118211     0.000000 
  81.811000   400.000000     0.002500   460.057211     0.000000 
  81.819000   393.000000     0.002545   459.999782     0.000000 
  81.827000   432.000000     0.002315   459.945815     0.000000 
  81.835000   459.000000     0.002179   459.895209     0.000000 
  81.843000   431.000000     0.002320   459.847875     0.000000 
  81.851000   411.000000     0.002433   459.803727     0.000000 
  81.859000   403.000000     0.002481   459.762693     0.000000 
  81.867000   423.000000     0.002364   459.724705     0.000000 
  81.875000   444.000000     0.002252   459.689702     0.000000 
  81.883000   438.000000     0.002283   459.657632     0.000000 
  81.891000   438.000000     0.002283   459.628449     0.000000 
  81.899000   431.000000     0.002320   459.602114     0.000000 
  81.907000   451.000000     0.002217   459.578595     0.000000 
  81.915000   470.000000     0.002128   459.557864     0.000000 
  81.923000   432.000000     0.002315   459.539903     0.000000 
  81.931000   416.000000     0.002404   459.524698     0.000000 
  81.939000   417.000000     0.002398   459.512241     0.000000 
  81.947000   383.000000     0.002611   459.502533     0.000000 
  81.955000   405.000000     0.002469   459.495577     0.000000 
  81.963000   445.000000     0.002247   459.491387     0.000000 
  81.971000   449.000000     0.002227   459.489980     0.000000 
  81.979000   470.000000     0.002128   459.491383     0.000000 
  81.987000   453.000000     0.002208   459.495627     0.000000 
  81.995000   398.000000     0.002513   459.502752     0.000000 
  82.003000   443.000000     0.002257   459.512805     0.000000 
  82.011000   432.000000     0.002315   459.525842     0.000000 
  82.019000   424.000000     0.002358   459.541924     0.000000 
  82.027000   437.000000     0.002288   459.561125     0.000000 
  82.035000   472.000000     0.002119   459.583526     0.000000 
  82.043000   456.000000     0.002193   459.609216     0.000000 
  82.051000   431.000000     0.002320   459.638299     0.000000 
  82.059000   446.000000     0.002242   459.670886     0.000000 
  82.067000   452.000000     0.002212   459.707103     0.000000 
  82.075000   436.000000     0.002294   459.747086     0.000000 
  82.083000   426.000000     0.002347   459.790988     0.000000 
  82.091000   433.000000     0.002309   459.838976     0.000000 
  82.099000   432.000000     0.002315   459.891233     0.000000 
  82.107000   436.000000     0.002294   459.947960     0.000000 
  82.115000   435.000000     0.002299   460.009380     0.000000 
  82.123000   414.000000     0.002415   460.075734     0.000000 
  82.131000   418.000000     0.002392   460.147289     0.000000 
  82.139000   432.000000     0.002315   460.224339     0.000000 
  82.147000   430.000000     0.002326   460.307204     0.000000 
  82.155000   393.000000     0.002545   460.396237     0.000000 
  82.163000   426.000000     0.002347   460.491828     0.000000 
  82.171000   420.000000     0.002381   460.594404     0.000000 
  82.179000   419.000000     0.002387   460.704437     0.000000 
  82.187000   458.000000     0.002183   460.822446     0.000000 
  82.195000   489.000000     0.002045   460.949006     0.000000 
  82.203000   436.000000     0.002294   461.084753     0.000000 
  82.211000   393.000000     0.002545   461.230391     0.000000 
  82.219000   416.000000     0.002404   461.121690     0.000000 
  82.227000   390.000000     0.002564   461.291803     0.000000 
  82.235000   403.000000     0.002481   461.474397     0.000000 
  82.243000   427.000000     0.002342   461.670553     0.000000 
  82.251000   399.000000     0.002506   461.881478     0.000000 
  82.259000   415.000000     0.002410   461.413445     0.000000 
  82.267000   420.000000     0.002381   461.664060     0.000000 
  82.275000   403.000000     0.002481   461.933956     0.000000 
  82.283000   406.000000     0.002463   462.225066     0.000000 
  82.291000   423.000000     0.002364   462.539578     0.000000 
  82.299000   405.000000     0.002469   462.879976     0.000000 
  82.307000   430.000000     0.002326   463.249087     0.000000 
  82.315000   425.000000     0.002353   463.650141     0.000000 
  82.323000   408.000000     0.002451   464.086843     0.000000 
  82.331000   395.000000     0.002532   464.563459     0.000000 
  82.339000   423.000000     0.002364   465.084928     0.000000 
  82.347000   451.000000     0.002217   465.656992     0.000000 
  82.355000   419.000000     0.002387   466.286370     0.000000 
  82.363000   390.000000     0.002564   466.980973     0.000000 
  82.371000   444.000000     0.002252   467.750168     0.000000 
  82.379000   446.000000     0.002242   468.605121     0.000000 
  82.387000   435.000000     0.002299   469.559212     0.000000 
  82.395000   452.000000     0.002212   470.628547     0.000000 
  82.403000   452.000000     0.002212   471.832572     0.000000 
  82.411000   451.000000     0.002217   473.194789     0.000000 
  82.419000   483.000000     0.002070   474.743581     0.000000 
  82.427000   473.000000     0.002114   476.513112     0.000000 
  82.435000   425.000000     0.002353   478.544282     0.000000 
  82.443000   430.000000     0.002326   480.885688     0.000000 
  82.451000   461.000000     0.002169   483.594503     0.000000 
  82.459000   471.000000     0.002123   486.737159     0.000000 
  82.467000   462.000000     0.002165   490.389628     0.000000 
  82.475000   447.000000     0.002237   494.636938     0.000000 
  82.483000   461.000000     0.002169   499.571276     0.000000 
  82.491000   525.000000     0.001905   505.287513     0.000000 
  82.499000   515.000000     0.001942   511.874183     0.000000 
  82.507000   488.000000     0.002049   519.396784     0.000000 
  82.515000   509.000000     0.001965   527.869103     0.000000 
  82.523000   526.000000     0.001901   537.208058     0.000000 
  82.531000   567.000000     0.001764   547.170849     0.000000 
  82.539000   587.000000     0.001704   557.284189     0.000000 
  82.547000   612.000000     0.001634   566.797118     0.000000 
  82.555000   651.000000     0.001536   574.714549     0.000000 
  82.563000   682.000000     0.001466   579.969147     0.000000 
  82.571000   682.000000     0.001466   581.724416     0.000000 
  82.579000   704.000000     0.001420   579.682333     0.000000 
  82.587000   665.000000     0.001504   574.206196     0.000000 
  82.595000   632.000000     0.001582   566.171837     0.000000 
  82.603000   610.000000     0.001639   556.651621     0.000000 
  82.611000   636.000000     0.001572   546.621015     0.000000 
  82.619000   590.000000     0.001695   536.802246     0.000000 
  82.627000   530.000000     0.001887   527.642090     0.000000 
  82.635000   527.000000     0.001898   519.363740     0.000000 
  82.643000   499.000000     0.002004   512.637045     0.000000 
  82.651000   480.000000     0.002083   506.247115     0.000000 
  82.659000   510.000000     0.001961   500.719943     0.000000 
  82.667000   492.000000     0.002033   495.965803     0.000000 
  82.675000   469.000000     0.002132   491.889848     0.000000 
  82.683000   485.000000     0.002062   488.400548     0.000000 
  82.691000   470.000000     0.002128   485.413818     0.000000 
  82.699000   470.000000     0.002128   482.854733     0.000000 
  82.707000   448.000000     0.002232   480.657909     0.000000 
  82.715000   440.000000     0.002273   478.767166     0.000000 
  82.723000   420.000000     0.002381   477.134820     0.000000 
  82.731000   418.000000     0.002392   475.720786     0.000000 
  82.739000   390.000000     0.002564   474.491621     0.000000 
  82.747000   413.000000     0.002421   473.419569     0.000000 
  82.755000   468.000000     0.002137   472.481669     0.000000 
  82.763000   451.000000     0.002217   471.658938     0.000000 
  82.771000   454.000000     0.002203   470.935671     0.000000 
  82.779000   446.000000     0.002242   470.298834     0.000000 
  82.787000   453.000000     0.002208   469.737563     0.000000 
  82.795000   471.000000     0.002123   469.242756     0.000000 
  82.803000   463.000000     0.002160   468.806745     0.000000 
  82.811000   456.000000     0.002193   468.423029     0.000000 
  82.819000   430.000000     0.002326   468.086070     0.000000 
  82.827000   414.000000     0.002415   467.791123     0.000000 
  82.835000   473.000000     0.002114   467.534107     0.000000 
  82.843000   483.000000     0.002070   467.311499     0.000000 
  82.851000   432.000000     0.002315   467.120244     0.000000 
  82.859000   425.000000     0.002353   466.957693     0.000000 
  82.867000   435.000000     0.002299   466.821539     0.000000 
  82.875000   460.000000     0.002174   466.709771     0.000000 
  82.883000   430.000000     0.002326   466.620638     0.000000 
  82.891000   455.000000     0.002198   466.552611     0.000000 
  82.899000   473.000000     0.002114   466.504357     0.000000 
  82.907000   443.000000     0.002257   466.474717     0.000000 
  82.915000   465.000000     0.002151   466.462681     0.000000 
  82.923000   441.000000     0.002268   466.467376     0.000000 
  82.931000   477.000000     0.002096   466.488049     0.000000 
  82.939000   446.000000     0.002242   466.524053     0.000000 
  82.947000   459.000000     0.002179   466.574839     0.000000 
  82.955000   438.000000     0.002283   466.639944     0.000000 
  82.963000   422.000000     0.002370   466.718989     0.000000 
  82.971000   457.000000     0.002188   466.811662     0.000000 
  82.979000   502.000000     0.001992   466.917724     0.000000 
  82.987000   509.000000     0.001965   467.036996     0.000000 
  82.995000   468.000000     0.002137   467.169357     0.000000 
  83.003000   407.000000     0.002457   467.314743     0.000000 
  83.011000   407.000000     0.002457   467.473143     0.000000 
  83.019000   428.000000     0.002336   467.644596     0.000000 
  83.027000   419.000000     0.002387   467.829188     0.000000 
  83.035000   410.000000     0.002439   468.027054     0.000000 
  83.043000   401.000000     0.002494   468.238378     0.000000 
  83.051000   404.000000     0.002475   468.463387     0.000000 
  83.059000   453.000000     0.002208   468.702356     0.000000 
  83.067000   438.000000     0.002283   468.955606     0.000000 
  83.075000   456.000000     0.002193   469.223506     0.000000 
  83.083000   474.000000     0.002110   469.233848     0.000000 
  83.091000   446.000000     0.002242   469.534649     0.000000 
  83.099000   461.000000     0.002169   469.851476     0.000000 
  83.107000   495.000000     0.002020   470.184901     0.000000 
  83.115000   430.000000     0.002326   470.535553     0.000000 
  83.123000   482.000000     0.002075   470.904121     0.000000 
  83.131000   447.000000     0.002237   471.291356     0.000000 
  83.139000   406.000000     0.002463   471.698075     0.000000 
  83.147000   430.000000     0.002326   472.125166     0.000000 
  83.155000   440.000000     0.002273   472.573592     0.000000 
  83.163000   442.000000     0.002262   473.044396     0.000000 
  83.171000   406.000000     0.002463   473.538709     0.000000 
  83.179000   405.000000     0.002469   474.057755     0.000000 
  83.187000   419.000000     0.002387   474.602858     0.000000 
  83.195000   417.000000     0.002398   475.175453     0.000000 
  83.203000   460.000000     0.002174   475.777091     0.000000 
  83.211000   461.000000     0.002169   476.409454     0.000000 
  83.219000   436.000000     0.002294   477.074363     0.000000 
  83.227000   468.000000     0.002137   477.773792     0.000000 
  83.235000   439.000000     0.002278   478.509884     0.000000 
  83.243000   420.000000     0.002381   479.284964     0.000000 
  83.251000   440.000000     0.002273   480.101559     0.000000 
  83.259000   468.000000     0.002137   480.962416     0.000000 
  83.267000   464.000000     0.002155   481.870529     0.000000 
  83.275000   485.000000     0.002062   482.829159     0.000000 
  83.283000   460.000000     0.002174   483.841863     0.000000 
  83.291000   468.000000     0.002137   484.912529     0.000000 
  83.299000   497.000000     0.002012   486.045413     0.000000 
  83.307000   456.000000     0.002193   487.245173     0.000000 
  83.315000   496.000000     0.002016   488.516922     0.000000 
  83.323000   480.000000     0.002083   489.866277     0.000000 
  83.331000   446.000000     0.002242   491.299421     0.000000 
  83.339000   468.000000     0.002137   492.823167     0.000000 
  83.347000   461.000000     0.002169   494.445041     0.000000 
  83.355000   457.000000     0.002188   496.173367     0.000000 
  83.363000   491.000000     0.002037   498.017369     0.000000 
  83.371000   481.000000     0.002079   499.987291     0.000000 
  83.379000   446.000000     0.002242   502.222289     0.000000 
  83.387000   471.000000     0.002123   504.480472     0.000000 
  83.395000   503.000000     0.001988   506.902887     0.000000 
  83.403000   504.000000     0.001984   509.505439     0.000000 
  83.411000   482.000000     0.002075   513.496946     0.000000 
  83.419000   489.000000     0.002045   516.524141     0.000000 
  83.427000   539.000000     0.001855   519.792214     0.000000 
  83.435000   532.000000     0.001880   523.326861     0.000000 
  83.443000   494.000000     0.002024   527.157287     0.000000 
  83.451000   535.000000     0.001869   531.316806     0.000000 
  83.459000   500.000000     0.002000   535.843592     0.000000 
  83.467000   515.000000     0.001942   540.781612     0.000000 
  83.475000   541.000000     0.001848   546.181789     0.000000 
  83.483000   495.000000     0.002020   552.103478     0.000000 
  83.491000   520.000000     0.001923   558.616325     0.000000 
  83.499000   555.000000     0.001802   565.802625     0.000000 
  83.507000   596.000000     0.001678   573.760275     0.000000 
  83.515000   543.000000     0.001842   582.606440     0.000000 
  83.523000   507.000000     0.001972   592.482033     0.000000 
  83.531000   602.000000     0.001661   603.557068     0.000000 
  83.539000   595.000000     0.001681   616.036898     0.000000 
  83.547000   596.000000     0.001678   630.169242     0.000000 
  83.555000   573.000000     0.001745   646.251825     0.000000 
  83.563000   619.000000     0.001616   664.640265     0.000000 
  83.571000   662.000000     0.001511   685.755750     0.000000 
  83.579000   678.000000     0.001475   710.091831     0.000000 
  83.587000   724.000000     0.001381   738.219480     0.000000 
  83.595000   767.000000     0.001304   770.789283     0.000000 
  83.603000   799.000000     0.001252   808.529081     0.000000 
  83.611000   861.000000     0.001161   852.234388     0.000000 
  83.619000   897.000000     0.001115   902.746987     0.000000 
  83.627000   950.000000     0.001053   960.913693     0.000000 
  83.635000  1048.000000     0.000954  1027.511785     0.000000 
  83.643000  1130.000000     0.000885  1103.119760     0.000000 
  83.651000  1193.000000     0.000838  1187.903483     0.000000 
  83.659000  1306.000000     0.000766  1281.283984     0.000000 
  83.667000  1454.000000     0.000688  1381.468324     0.000000 
  83.675000  1568.000000     0.000638  1484.883955     0.000000 
  83.683000  1774.000000     0.000564  1585.686467     0.000000 
  83.691000  1909.000000     0.000524  1675.697499     0.000000 
  83.699000  2115.000000     0.000473  1745.244992     0.000000 
  83.707000  2174.000000     0.000460  1785.158720     0.000000 
  83.715000  2272.000000     0.000440  1789.460947     0.000000 
  83.723000  2298.000000     0.000435  1757.480607     0.000000 
  83.731000  2230.000000     0.000448  1694.107015     0.000000 
  83.739000  2110.000000     0.000474  1608.016313     0.000000 
  83.747000  1989.000000     0.000503  1508.981245     0.000000 
  83.755000  1852.000000     0.000540  1405.640798     0.000000 
  83.763000  1693.000000     0.000591  1304.397553     0.000000 
  83.771000  1544.000000     0.000648  1209.313056     0.000000 
  83.779000  1411.000000     0.000709  1122.539375     0.000000 
  83.787000  1274.000000     0.000785  1044.889150     0.000000 
  83.795000  1143.000000     0.000875   976.334026     0.000000 
  83.803000  1052.000000     0.000951   916.368001     0.000000 
  83.811000  1015.000000     0.000985   864.245704     0.000000 
  83.819000   943.000000     0.001060   819.128214     0.000000 
  83.827000   882.000000     0.001134   780.168030     0.000000 
  83.835000   856.000000     0.001168   746.556553     0.000000 
  83.843000   819.000000     0.001221   717.549191     0.000000 
  83.851000   724.000000     0.001381   692.477167     0.000000 
  83.859000   674.000000     0.001484   670.751254     0.000000 
  83.867000   800.000000     0.001250   651.860456     0.000000 
  83.875000   690.000000     0.001449   635.367501     0.000000 
  83.883000   671.000000     0.001490   620.902357     0.000000 
  83.891000   627.000000     0.001595   608.154702     0.000000 
  83.899000   666.000000     0.001502   596.866032     0.000000 
  83.907000   658.000000     0.001520   586.821928     0.000000 
  83.915000   606.000000     0.001650   577.844871     0.000000 
  83.923000   602.000000     0.001661   569.787804     0.000000 
  83.931000   615.000000     0.001626   562.528578     0.000000 
  83.939000   567.000000     0.001764   555.965272     0.000000 
  83.947000   549.000000     0.001821   550.012348     0.000000 
  83.955000   502.000000     0.001992   544.597543     0.000000 
  83.963000   546.000000     0.001832   539.659386     0.000000 
  83.971000   547.000000     0.001828   535.145229     0.000000 
  83.979000   507.000000     0.001972   531.009697     0.000000 
  83.987000   531.000000     0.001883   527.213453     0.000000 
  83.995000   549.000000     0.001821   523.722221     0.000000 
  84.003000   483.000000     0.002070   520.506000     0.000000 
  84.011000   483.000000     0.002070   517.538426     0.000000 
  84.019000   468.000000     0.002137   514.796253     0.000000 
  84.027000   478.000000     0.002092   512.258916     0.000000 
  84.035000   539.000000     0.001855   509.908297     0.000000 
  84.043000   502.000000     0.001992   507.727939     0.000000 
  84.051000   428.000000     0.002336   505.703506     0.000000 
  84.059000   489.000000     0.002045   503.822087     0.000000 
  84.067000   421.000000     0.002375   502.072124     0.000000 
  84.075000   434.000000     0.002304   500.443257     0.000000 
  84.083000   448.000000     0.002232   498.926180     0.000000 
  84.091000   446.000000     0.002242   497.512518     0.000000 
  84.099000   459.000000     0.002179   496.194728     0.000000 
  84.107000   500.000000     0.002000   494.966004     0.000000 
  84.115000   507.000000     0.001972   493.820197     0.000000 
  84.123000   421.000000     0.002375   492.751750     0.000000 
  84.131000   456.000000     0.002193   491.755630     0.000000 
  84.139000   500.000000     0.002000   490.841041     0.000000 
  84.147000   515.000000     0.001942   489.976433     0.000000 
  84.155000   431.000000     0.002320   489.171728     0.000000 
  84.163000   407.000000     0.002457   488.423536     0.000000 
  84.171000   445.000000     0.002247   487.728785     0.000000 
  84.179000   454.000000     0.002203   487.084694     0.000000 
  84.187000   419.000000     0.002387   486.488747     0.000000 
  84.195000   458.000000     0.002183   485.938673     0.000000 
  84.203000   479.000000     0.002088   485.432426     0.000000 
  84.211000   483.000000     0.002070   484.968166     0.000000 
  84.219000   434.000000     0.002304   484.544249     0.000000 
  84.227000   493.000000     0.002028   484.159209     0.000000 
  84.235000   475.000000     0.002105   483.811750     0.000000 
  84.243000   389.000000     0.002571   483.500734     0.000000 
  84.251000   460.000000     0.002174   483.225177     0.000000 
  84.259000   475.000000     0.002105   482.984237     0.000000 
  84.267000   478.000000     0.002092   482.777210     0.000000 
  84.275000   449.000000     0.002227   482.603527     0.000000 
  84.283000   468.000000     0.002137   482.462749     0.000000 
  84.291000   430.000000     0.002326   482.354565     0.000000 
  84.299000   496.000000     0.002016   482.278790     0.000000 
  84.307000   489.000000     0.002045   482.235367     0.000000 
  84.315000   445.000000     0.002247   482.224365     0.000000 
  84.323000   489.000000     0.002045   482.245981     0.000000 
  84.331000   486.000000     0.002058   482.300545     0.000000 
  84.339000   482.000000     0.002075   482.388522     0.000000 
  84.347000   475.000000     0.002105   482.510519     0.000000 
  84.355000   456.000000     0.002193   482.667288     0.000000 
  84.363000   439.000000     0.002278   482.859740     0.000000 
  84.371000   412.000000     0.002427   483.088948     0.000000 
  84.379000   468.000000     0.002137   483.356161     0.000000 
  84.387000   516.000000     0.001938   483.662820     0.000000 
  84.395000   413.000000     0.002421   484.010566     0.000000 
  84.403000   426.000000     0.002347   484.401264     0.000000 
  84.411000   452.000000     0.002212   484.837021     0.000000 
  84.419000   479.000000     0.002088   485.320208     0.000000 
  84.427000   436.000000     0.002294   485.853489     0.000000 
  84.435000   480.000000     0.002083   486.439847     0.000000 
  84.443000   478.000000     0.002092   487.082627     0.000000 
  84.451000   431.000000     0.002320   487.785568     0.000000 
  84.459000   437.000000     0.002288   488.552856     0.000000 
  84.467000   439.000000     0.002278   489.389172     0.000000 
  84.475000   483.000000     0.002070   490.299760     0.000000 
  84.483000   480.000000     0.002083   491.290495     0.000000 
  84.491000   459.000000     0.002179   492.367968     0.000000 
  84.499000   466.000000     0.002146   493.539582     0.000000 
  84.507000   450.000000     0.002222   494.813672     0.000000 
  84.515000   463.000000     0.002160   496.199637     0.000000 
  84.523000   471.000000     0.002123   497.708102     0.000000 
  84.531000   455.000000     0.002198   499.351119     0.000000 
  84.539000   444.000000     0.002252   501.142406     0.000000 
  84.547000   473.000000     0.002114   503.097641     0.000000 
  84.555000   436.000000     0.002294   505.234831     0.000000 
  84.563000   449.000000     0.002227   507.455928     0.000000 
  84.571000   498.000000     0.002008   510.023770     0.000000 
  84.579000   480.000000     0.002083   512.846857     0.000000 
  84.587000   471.000000     0.002123   515.958568     0.000000 
  84.595000   447.000000     0.002237   519.398531     0.000000 
  84.603000   488.000000     0.002049   523.214084     0.000000 
  84.611000   541.000000     0.001848   527.462071     0.000000 
  84.619000   474.000000     0.002110   532.210968     0.000000 
  84.627000   463.000000     0.002160   537.543371     0.000000 
  84.635000   493.000000     0.002028   543.558793     0.000000 
  84.643000   513.000000     0.001949   550.376690     0.000000 
  84.651000   533.000000     0.001876   558.139583     0.000000 
  84.659000   549.000000     0.001821   567.016078     0.000000 
  84.667000   542.000000     0.001845   577.203516     0.000000 
  84.675000   517.000000     0.001934   588.929946     0.000000 
  84.683000   564.000000     0.001773   602.455030     0.000000 
  84.691000   551.000000     0.001815   618.069419     0.000000 
  84.699000   553.000000     0.001808   636.091964     0.000000 
  84.707000   623.000000     0.001605   656.863813     0.000000 
  84.715000   660.000000     0.001515   680.737815     0.000000 
  84.723000   675.000000     0.001481   708.060524     0.000000 
  84.731000   707.000000     0.001414   739.142318     0.000000 
  84.739000   757.000000     0.001321   774.208535     0.000000 
  84.747000   796.000000     0.001256   813.321738     0.000000 
  84.755000   845.000000     0.001183   856.263572     0.000000 
  84.763000   939.000000     0.001065   902.368474     0.000000 
  84.771000  1046.000000     0.000956   950.317670     0.000000 
  84.779000  1174.000000     0.000852   997.939356     0.000000 
  84.787000  1243.000000     0.000805  1042.120261     0.000000 
  84.795000  1356.000000     0.000737  1078.987388     0.000000 
  84.803000  1396.000000     0.000716  1104.495247     0.000000 
  84.811000  1531.000000     0.000653  1115.376415     0.000000 
  84.819000  1536.000000     0.000651  1110.122436     0.000000 
  84.827000  1504.000000     0.000665  1089.494670     0.000000 
  84.835000  1426.000000     0.000701  1056.262214     0.000000 
  84.843000  1311.000000     0.000763  1014.325338     0.000000 
  84.851000  1237.000000     0.000808   967.703268     0.000000 
  84.859000  1190.000000     0.000840   919.805523     0.000000 
  84.867000  1051.000000     0.000951   873.122831     0.000000 
  84.875000   947.000000     0.001056   829.243283     0.000000 
  84.883000   889.000000     0.001125   789.029560     0.000000 
  84.891000   830.000000     0.001205   752.830615     0.000000 
  84.899000   751.000000     0.001332   720.663706     0.000000 
  84.907000   703.000000     0.001422   692.348433     0.000000 
  84.915000   696.000000     0.001437   667.596876     0.000000 
  84.923000   650.000000     0.001538   646.070987     0.000000 
  84.931000   610.000000     0.001639   627.417953     0.000000 
  84.939000   608.000000     0.001645   611.291599     0.000000 
  84.947000   611.000000     0.001637   597.365112     0.000000 
  84.955000   548.000000     0.001825   585.338311     0.000000 
  84.963000   606.000000     0.001650   574.941361     0.000000 
  84.971000   564.000000     0.001773   565.936052     0.000000 
  84.979000   483.000000     0.002070   558.115349     0.000000 
  84.987000   562.000000     0.001779   551.301742     0.000000 
  84.995000   520.000000     0.001923   545.344788     0.000000 
  85.003000   527.000000     0.001898   540.118181     0.000000 
  85.011000   508.000000     0.001969   535.516650     0.000000 
  85.019000   558.000000     0.001792   531.452879     0.000000 
  85.027000   580.000000     0.001724   527.854627     0.000000 
  85.035000   522.000000     0.001916   524.662131     0.000000 
  85.043000   534.000000     0.001873   521.825861     0.000000 
  85.051000   515.000000     0.001942   519.304617     0.000000 
  85.059000   525.000000     0.001905   517.063966     0.000000 
  85.067000   545.000000     0.001835   515.074971     0.000000 
  85.075000   507.000000     0.001972   513.313181     0.000000 
  85.083000   466.000000     0.002146   511.757832     0.000000 
  85.091000   466.000000     0.002146   510.391215     0.000000 
  85.099000   488.000000     0.002049   509.198183     0.000000 
  85.107000   504.000000     0.001984   508.165757     0.000000 
  85.115000   524.000000     0.001908   507.282819     0.000000 
  85.123000   524.000000     0.001908   506.539860     0.000000 
  85.131000   488.000000     0.002049   505.928785     0.000000 
  85.139000   494.000000     0.002024   505.442747     0.000000 
  85.147000   491.000000     0.002037   505.076019     0.000000 
  85.155000   470.000000     0.002128   504.823882     0.000000 
  85.163000   572.000000     0.001748   504.682541     0.000000 
  85.171000   492.000000     0.002033   504.649053     0.000000 
  85.179000   462.000000     0.002165   504.721272     0.000000 
  85.187000   530.000000     0.001887   504.897803     0.000000 
  85.195000   532.000000     0.001880   505.177976     0.000000 
  85.203000   509.000000     0.001965   505.561817     0.000000 
  85.211000   491.000000     0.002037   506.050044     0.000000 
  85.219000   508.000000     0.001969   506.644060     0.000000 
  85.227000   486.000000     0.002058   507.345965     0.000000 
  85.235000   507.000000     0.001972   508.158566     0.000000 
  85.243000   542.000000     0.001845   509.085412     0.000000 
  85.251000   522.000000     0.001916   510.130822     0.000000 
  85.259000   501.000000     0.001996   511.299936     0.000000 
  85.267000   491.000000     0.002037   512.598771     0.000000 
  85.275000   481.000000     0.002079   514.034297     0.000000 
  85.283000   446.000000     0.002242   515.614514     0.000000 
  85.291000   448.000000     0.002232   517.348558     0.000000 
  85.299000   463.000000     0.002160   519.246825     0.000000 
  85.307000   451.000000     0.002217   521.321105     0.000000 
  85.315000   429.000000     0.002331   523.584757     0.000000 
  85.323000   430.000000     0.002326   526.052907     0.000000 
  85.331000   436.000000     0.002294   528.742684     0.000000 
  85.339000   501.000000     0.001996   531.673513     0.000000 
  85.347000   535.000000     0.001869   534.867454     0.000000 
  85.355000   491.000000     0.002037   538.349633     0.000000 
  85.363000   492.000000     0.002033   542.148760     0.000000 
  85.371000   497.000000     0.002012   546.297782     0.000000 
  85.379000   489.000000     0.002045   550.834690     0.000000 
  85.387000   460.000000     0.002174   555.846687     0.000000 
  85.395000   506.000000     0.001976   561.299174     0.000000 
  85.403000   495.000000     0.002020   567.295361     0.000000 
  85.411000   495.000000     0.002020   573.906538     0.000000 
  85.419000   569.000000     0.001757   581.217393     0.000000 
  85.427000   544.000000     0.001838   589.329001     0.000000 
  85.435000   561.000000     0.001783   598.362381     0.000000 
  85.443000   552.000000     0.001812   608.462663     0.000000 
  85.451000   550.000000     0.001818   619.803809     0.000000 
  85.459000   580.000000     0.001724   632.593822     0.000000 
  85.467000   581.000000     0.001721   647.080235     0.000000 
  85.475000   599.000000     0.001669   663.555624     0.000000 
  85.483000   625.000000     0.001600   682.362813     0.000000 
  85.491000   640.000000     0.001563   703.899452     0.000000 
  85.499000   661.000000     0.001513   728.619289     0.000000 
  85.507000   659.000000     0.001517   757.033717     0.000000 
  85.515000   703.000000     0.001422   789.708000     0.000000 
  85.523000   777.000000     0.001287   827.252903     0.000000 
  85.531000   779.000000     0.001284   870.309111     0.000000 
  85.539000   861.000000     0.001161   919.521342     0.000000 
  85.547000   926.000000     0.001080   975.497667     0.000000 
  85.555000   951.000000     0.001052  1038.748126     0.000000 
  85.563000  1055.000000     0.000948  1109.595849     0.000000 
  85.571000  1124.000000     0.000890  1188.054894     0.000000 
  85.579000  1302.000000     0.000768  1273.673463     0.000000 
  85.587000  1456.000000     0.000687  1365.348898     0.000000 
  85.595000  1460.000000     0.000685  1461.129020     0.000000 
  85.603000  1584.000000     0.000631  1558.019687     0.000000 
  85.611000  1789.000000     0.000559  1651.829237     0.000000 
  85.619000  2013.000000     0.000497  1737.123917     0.000000 
  85.627000  2151.000000     0.000465  1807.457848     0.000000 
  85.635000  2355.000000     0.000425  1856.098856     0.000000 
  85.643000  2513.000000     0.000398  1877.330654     0.000000 
  85.651000  2589.000000     0.000386  1868.009814     0.000000 
  85.659000  2610.000000     0.000383  1828.663572     0.000000 
  85.667000  2551.000000     0.000392  1763.481758     0.000000 
  85.675000  2360.000000     0.000424  1679.164427     0.000000 
  85.683000  2146.000000     0.000466  1583.233538     0.000000 
  85.691000  1997.000000     0.000501  1482.566343     0.000000 
  85.699000  1747.000000     0.000572  1382.568350     0.000000 
  85.707000  1569.000000     0.000637  1286.975415     0.000000 
  85.715000  1391.000000     0.000719  1198.050584     0.000000 
  85.723000  1160.000000     0.000862  1116.933177     0.000000 
  85.731000  1071.000000     0.000934  1043.985892     0.000000 
  85.739000  1055.000000     0.000948   979.074215     0.000000 
  85.747000  1077.000000     0.000929   921.767117     0.000000 
  85.755000   891.000000     0.001122   871.471844     0.000000 
  85.763000   820.000000     0.001220   827.521002     0.000000 
  85.771000   807.000000     0.001239   789.227765     0.000000 
  85.779000   715.000000     0.001399   755.920597     0.000000 
  85.787000   754.000000     0.001326   726.964871     0.000000 
  85.795000   701.000000     0.001427   701.775852     0.000000 
  85.803000   690.000000     0.001449   678.581266     0.000000 
  85.811000   696.000000     0.001437   659.411421     0.000000 
  85.819000   744.000000     0.001344   642.603415     0.000000 
  85.827000   723.000000     0.001383   627.804894     0.000000 
  85.835000   697.000000     0.001435   614.715661     0.000000 
  85.843000   587.000000     0.001704   603.082354     0.000000 
  85.851000   524.000000     0.001908   592.692677     0.000000 
  85.859000   626.000000     0.001597   583.369618     0.000000 
  85.867000   634.000000     0.001577   574.965945     0.000000 
  85.875000   604.000000     0.001656   567.359214     0.000000 
  85.883000   546.000000     0.001832   560.447374     0.000000 
  85.891000   573.000000     0.001745   554.145022     0.000000 
  85.899000   556.000000     0.001799   548.380287     0.000000 
  85.907000   563.000000     0.001776   543.092282     0.000000 
  85.915000   523.000000     0.001912   538.229048     0.000000 
  85.923000   482.000000     0.002075   533.745927     0.000000 
  85.931000   488.000000     0.002049   529.604263     0.000000 
  85.939000   462.000000     0.002165   525.770382     0.000000 
  85.947000   498.000000     0.002008   522.214779     0.000000 
  85.955000   549.000000     0.001821   518.911468     0.000000 
  85.963000   510.000000     0.001961   515.837468     0.000000 
  85.971000   556.000000     0.001799   512.972370     0.000000 
  85.979000   539.000000     0.001855   510.297998     0.000000 
  85.987000   535.000000     0.001869   507.798109     0.000000 
  85.995000   577.000000     0.001733   505.458159     0.000000 
  86.003000   491.000000     0.002037   503.265087     0.000000 
  86.011000   442.000000     0.002262   501.207145     0.000000 
  86.019000   513.000000     0.001949   499.273742     0.000000 
  86.027000   503.000000     0.001988   497.455314     0.000000 
  86.035000   484.000000     0.002066   495.743213     0.000000 
  86.043000   518.000000     0.001931   494.129601     0.000000 
  86.051000   495.000000     0.002020   492.607367     0.000000 
  86.059000   473.000000     0.002114   491.170054     0.000000 
  86.067000   449.000000     0.002227   489.811788     0.000000 
  86.075000   469.000000     0.002132   488.527221     0.000000 
  86.083000   431.000000     0.002320   487.311482     0.000000 
  86.091000   460.000000     0.002174   486.160129     0.000000 
  86.099000   445.000000     0.002247   485.069111     0.000000 
  86.107000   430.000000     0.002326   484.034732     0.000000 
  86.115000   559.000000     0.001789   483.053624     0.000000 
  86.123000   438.000000     0.002283   482.122716     0.000000 
  86.131000   453.000000     0.002208   481.239215     0.000000 
  86.139000   430.000000     0.002326   480.400586     0.000000 
  86.147000   506.000000     0.001976   479.604532     0.000000 
  86.155000   483.000000     0.002070   478.848987     0.000000 
  86.163000   470.000000     0.002128   478.132099     0.000000 
  86.171000   421.000000     0.002375   477.452228     0.000000 
  86.179000   442.000000     0.002262   476.807936     0.000000 
  86.187000   472.000000     0.002119   476.197996     0.000000 
  86.195000   457.000000     0.002188   475.621384     0.000000 
  86.203000   504.000000     0.001984   475.077296     0.000000 
  86.211000   522.000000     0.001916   474.565157     0.000000 
  86.219000   464.000000     0.002155   474.084642     0.000000 
  86.227000   450.000000     0.002222   473.635697     0.000000 
  86.235000   437.000000     0.002288   473.218574     0.000000 
  86.243000   446.000000     0.002242   472.833861     0.000000 
  86.251000   471.000000     0.002123   472.482526     0.000000 
  86.259000   420.000000     0.002381   472.165947     0.000000 
  86.267000   447.000000     0.002237   471.885953     0.000000 
  86.275000   462.000000     0.002165   471.644845     0.000000 
  86.283000   458.000000     0.002183   471.445406     0.000000 
  86.291000   462.000000     0.002165   471.290905     0.000000 
  86.299000   442.000000     0.002262   471.185088     0.000000 
  86.307000   417.000000     0.002398   471.132182     0.000000 
  86.315000   455.000000     0.002198   471.136916     0.000000 
  86.323000   401.000000     0.002494   471.204555     0.000000 
  86.331000   462.000000     0.002165   471.340891     0.000000 
  86.339000   463.000000     0.002160   471.552116     0.000000 
  86.347000   492.000000     0.002033   471.844474     0.000000 
  86.355000   506.000000     0.001976   472.223625     0.000000 
  86.363000   511.000000     0.001957   472.693676     0.000000 
  86.371000   465.000000     0.002151   473.255795     0.000000 
  86.379000   444.000000     0.002252   473.906304     0.000000 
  86.387000   480.000000     0.002083   474.634101     0.000000 
  86.395000   482.000000     0.002075   475.417460     0.000000 
  86.403000   502.000000     0.001992   476.220636     0.000000 
  86.411000   486.000000     0.002058   476.991467     0.000000 
  86.419000   473.000000     0.002114   477.662039     0.000000 
  86.427000   475.000000     0.002105   478.154793     0.000000 
  86.435000   489.000000     0.002045   478.395213     0.000000 
  86.443000   509.000000     0.001965   478.328798     0.000000 
  86.451000   522.000000     0.001916   477.936078     0.000000 
  86.459000   493.000000     0.002028   477.238414     0.000000 
  86.467000   525.000000     0.001905   476.291470     0.000000 
  86.475000   456.000000     0.002193   475.169850     0.000000 
  86.483000   434.000000     0.002304   473.950253     0.000000 
  86.491000   486.000000     0.002058   472.699190     0.000000 
  86.499000   509.000000     0.001965   471.467289     0.000000 
  86.507000   454.000000     0.002203   470.288925     0.000000 
  86.515000   459.000000     0.002179   469.184759     0.000000 
  86.523000   404.000000     0.002475   468.165168     0.000000 
  86.531000   446.000000     0.002242   467.233429     0.000000 
  86.539000   435.000000     0.002299   466.388204     0.000000 
  86.547000   480.000000     0.002083   465.625333     0.000000 
  86.555000   445.000000     0.002247   464.939036     0.000000 
  86.563000   465.000000     0.002151   464.322718     0.000000 
  86.571000   466.000000     0.002146   463.769491     0.000000 
  86.579000   448.000000     0.002232   463.272525     0.000000 
  86.587000   447.000000     0.002237   462.825273     0.000000 
  86.595000   445.000000     0.002247   462.421622     0.000000 
  86.603000   466.000000     0.002146   462.055987     0.000000 
  86.611000   452.000000     0.002212   461.723351     0.000000 
  86.619000   430.000000     0.002326   461.419285     0.000000 
  86.627000   440.000000     0.002273   461.139930     0.000000 
  86.635000   410.000000     0.002439   460.881964     0.000000 
  86.643000   441.000000     0.002268   460.642557     0.000000 
  86.651000   490.000000     0.002041   460.419314     0.000000 
  86.659000   425.000000     0.002353   460.210225     0.000000 
  86.667000   441.000000     0.002268   460.013600     0.000000 
  86.675000   467.000000     0.002141   459.828027     0.000000 
  86.683000   447.000000     0.002237   459.652317     0.000000 
  86.691000   433.000000     0.002309   459.485472     0.000000 
  86.699000   438.000000     0.002283   459.326643     0.000000 
  86.707000   476.000000     0.002101   459.175107     0.000000 
  86.715000   428.000000     0.002336   459.030243     0.000000 
  86.723000   442.000000     0.002262   458.891511     0.000000 
  86.731000   462.000000     0.002165   458.758440     0.000000 
  86.739000   481.000000     0.002079   458.630616     0.000000 
  86.747000   450.000000     0.002222   458.507673     0.000000 
  86.755000   421.000000     0.002375   458.389282     0.000000 
  86.763000   425.000000     0.002353   458.275152     0.000000 
  86.771000   441.000000     0.002268   458.165018     0.000000 
  86.779000   436.000000     0.002294   458.058643     0.000000 
  86.787000   439.000000     0.002278   457.955811     0.000000 
  86.795000   463.000000     0.002160   457.856325     0.000000 
  86.803000   472.000000     0.002119   457.760007     0.000000 
  86.811000   473.000000     0.002114   457.666694     0.000000 
  86.819000   473.000000     0.002114   457.576235     0.000000 
  86.827000   447.000000     0.002237   457.488494     0.000000 
  86.835000   436.000000     0.002294   457.403344     0.000000 
  86.843000   397.000000     0.002519   457.320668     0.000000 
  86.851000   484.000000     0.002066   457.240360     0.000000 
  86.859000   491.000000     0.002037   457.162319     0.000000 
  86.867000   455.000000     0.002198   457.086454     0.000000 
  86.875000   419.000000     0.002387   457.012679     0.000000 
  86.883000   482.000000     0.002075   456.940916     0.000000 
  86.891000   532.000000     0.001880   456.871090     0.000000 
  86.899000   486.000000     0.002058   456.803134     0.000000 
  86.907000   453.000000     0.002208   456.736984     0.000000 
  86.915000   429.000000     0.002331   456.672580     0.000000 
  86.923000   445.000000     0.002247   456.609867     0.000000 
  86.931000   468.000000     0.002137   456.548794     0.000000 
  86.939000   456.000000     0.002193   456.489312     0.000000 
  86.947000   477.000000     0.002096   456.431377     0.000000 
  86.955000   501.000000     0.001996   456.374948     0.000000 
  86.963000   468.000000     0.002137   456.319984     0.000000 
  86.971000   434.000000     0.002304   456.266450     0.000000 
  86.979000   426.000000     0.002347   456.214312     0.000000 
  86.987000   427.000000     0.002342   455.567186     0.000000 
  86.995000   436.000000     0.002294   455.522107     0.000000 
  87.003000   440.000000     0.002273   455.478289     0.000000 
  87.011000   425.000000     0.002353   455.435709     0.000000 
  87.019000   460.000000     0.002174   455.394343     0.000000 
  87.027000   462.000000     0.002165   455.354172     0.000000 
  87.035000   478.000000     0.002092   455.315176     0.000000 
  87.043000   443.000000     0.002257   455.277341     0.000000 
  87.051000   448.000000     0.002232   455.240650     0.000000 
  87.059000   445.000000     0.002247   455.205090     0.000000 
  87.067000   451.000000     0.002217   455.170650     0.000000 
  87.075000   427.000000     0.002342   455.137321     0.000000 
  87.083000   433.000000     0.002309   455.105094     0.000000 
  87.091000   441.000000     0.002268   455.073962     0.000000 
  87.099000   458.000000     0.002183   455.043921     0.000000 
  87.107000   466.000000     0.002146   455.014968     0.000000 
  87.115000   479.000000     0.002088   454.987101     0.000000 
  87.123000   463.000000     0.002160   454.960320     0.000000 
  87.131000   440.000000     0.002273   454.934628     0.000000 
  87.139000   448.000000     0.002232   454.910028     0.000000 
  87.147000   474.000000     0.002110   454.886526     0.000000 
  87.155000   456.000000     0.002193   454.864129     0.000000 
  87.163000   416.000000     0.002404   454.842847     0.000000 
  87.171000   428.000000     0.002336   454.822691     0.000000 
  87.179000   475.000000     0.002105   454.803676     0.000000 
  87.187000   467.000000     0.002141   454.785816     0.000000 
  87.195000   468.000000     0.002137   454.769130     0.000000 
  87.203000   450.000000     0.002222   454.753639     0.000000 
  87.211000   435.000000     0.002299   454.739366     0.000000 
  87.219000   417.000000     0.002398   454.726338     0.000000 
  87.227000   446.000000     0.002242   454.714582     0.000000 
  87.235000   462.000000     0.002165   454.704132     0.000000 
  87.243000   462.000000     0.002165   454.695023     0.000000 
  87.251000   542.000000     0.001845   454.687294     0.000000 
  87.259000   499.000000     0.002004   454.680988     0.000000 
  87.267000   477.000000     0.002096   454.676152     0.000000 
  87.275000   481.000000     0.002079   454.672837     0.000000 
  87.283000   457.000000     0.002188   454.671101     0.000000 
  87.291000   442.000000     0.002262   454.671004     0.000000 
  87.299000   456.000000     0.002193   454.672613     0.000000 
  87.307000   426.000000     0.002347   454.676003     0.000000 
  87.315000   418.000000     0.002392   454.681252     0.000000 
  87.323000   444.000000     0.002252   454.688449     0.000000 
  87.331000   455.000000     0.002198   454.697688     0.000000 
  87.339000   432.000000     0.002315   454.709074     0.000000 
  87.347000   439.000000     0.002278   454.722720     0.000000 
  87.355000   440.000000     0.002273   454.738750     0.000000 
  87.363000   430.000000     0.002326   454.757298     0.000000 
  87.371000   445.000000     0.002247   454.778514     0.000000 
  87.379000   461.000000     0.002169   454.802560     0.000000 
  87.387000   441.000000     0.002268   454.829612     0.000000 
  87.395000   448.000000     0.002232   454.859865     0.000000 
  87.403000   413.000000     0.002421   454.893534     0.000000 
  87.411000   446.000000     0.002242   454.930852     0.000000 
  87.419000   446.000000     0.002242   454.972078     0.000000 
  87.427000   489.000000     0.002045   455.017497     0.000000 
  87.435000   478.000000     0.002092   455.067422     0.000000 
  87.443000   443.000000     0.002257   455.122200     0.000000 
  87.451000   438.000000     0.002283   455.182216     0.000000 
  87.459000   474.000000     0.002110   455.247896     0.000000 
  87.467000   436.000000     0.002294   455.319714     0.000000 
  87.475000   459.000000     0.002179   455.398198     0.000000 
  87.483000   462.000000     0.002165   455.483939     0.000000 
  87.491000   462.000000     0.002165   455.577601     0.000000 
  87.499000   451.000000     0.002217   455.679931     0.000000 
  87.507000   458.000000     0.002183   455.791777     0.000000 
  87.515000   463.000000     0.002160   455.914102     0.000000 
  87.523000   417.000000     0.002398   456.048014     0.000000 
  87.531000   440.000000     0.002273   456.194789     0.000000 
  87.539000   461.000000     0.002169   456.355910     0.000000 
  87.547000   468.000000     0.002137   456.533118     0.000000 
  87.555000   482.000000     0.002075   456.728463     0.000000 
  87.563000   464.000000     0.002155   456.944378     0.000000 
  87.571000   444.000000     0.002252   457.183765     0.000000 
  87.579000   474.000000     0.002110   457.450095     0.000000 
  87.587000   455.000000     0.002198   457.747526     0.000000 
  87.595000   465.000000     0.002151   458.081031     0.000000 
  87.603000   400.000000     0.002500   458.456540     0.000000 
  87.611000   501.000000     0.001996   458.881091     0.000000 
  87.619000   501.000000     0.001996   459.362963     0.000000 
  87.627000   471.000000     0.002123   459.911816     0.000000 
  87.635000   462.000000     0.002165   460.538779     0.000000 
  87.643000   475.000000     0.002105   461.256518     0.000000 
  87.651000   487.000000     0.002053   462.079227     0.000000 
  87.659000   460.000000     0.002174   463.022550     0.000000 
  87.667000   459.000000     0.002179   464.103406     0.000000 
  87.675000   487.000000     0.002053   465.339699     0.000000 
  87.683000   451.000000     0.002217   466.749882     0.000000 
  87.691000   462.000000     0.002165   468.352333     0.000000 
  87.699000   433.000000     0.002309   470.164478     0.000000 
  87.707000   421.000000     0.002375   472.201530     0.000000 
  87.715000   457.000000     0.002188   474.474679     0.000000 
  87.723000   458.000000     0.002183   476.988448     0.000000 
  87.731000   456.000000     0.002193   479.736882     0.000000 
  87.739000   462.000000     0.002165   482.698248     0.000000 
  87.747000   470.000000     0.002128   485.828083     0.000000 
  87.755000   449.000000     0.002227   489.051099     0.000000 
  87.763000   464.000000     0.002155   492.253560     0.000000 
  87.771000   469.000000     0.002132   495.279577     0.000000 
  87.779000   477.000000     0.002096   497.936321     0.000000 
  87.787000   521.000000     0.001919   500.013095     0.000000 
  87.795000   547.000000     0.001828   501.315226     0.000000 
  87.803000   565.000000     0.001770   501.705811     0.000000 
  87.811000   579.000000     0.001727   501.140482     0.000000 
  87.819000   564.000000     0.001773   499.679570     0.000000 
  87.827000   532.000000     0.001880   497.471668     0.000000 
  87.835000   506.000000     0.001976   494.716650     0.000000 
  87.843000   489.000000     0.002045   491.624315     0.000000 
  87.851000   493.000000     0.002028   488.256226     0.000000 
  87.859000   503.000000     0.001988   485.015347     0.000000 
  87.867000   494.000000     0.002024   481.881745     0.000000 
  87.875000   526.000000     0.001901   478.925344     0.000000 
  87.883000   497.000000     0.002012   476.186533     0.000000 
  87.891000   492.000000     0.002033   472.501297     0.000000 
  87.899000   489.000000     0.002045   470.247744     0.000000 
  87.907000   485.000000     0.002062   468.228756     0.000000 
  87.915000   473.000000     0.002114   466.432365     0.000000 
  87.923000   448.000000     0.002232   464.842902     0.000000 
  87.931000   463.000000     0.002160   463.442721     0.000000 
  87.939000   485.000000     0.002062   462.213378     0.000000 
  87.947000   486.000000     0.002058   461.136467     0.000000 
  87.955000   465.000000     0.002151   460.194211     0.000000 
  87.963000   470.000000     0.002128   459.369871     0.000000 
  87.971000   510.000000     0.001961   458.648018     0.000000 
  87.979000   524.000000     0.001908   458.014690     0.000000 
  87.987000   451.000000     0.002217   457.457461     0.000000 
  87.995000   430.000000     0.002326   456.965431     0.000000 
  88.003000   456.000000     0.002193   456.529163     0.000000 
  88.011000   431.000000     0.002320   456.140575     0.000000 
  88.019000   457.000000     0.002188   455.792811     0.000000 
  88.027000   491.000000     0.002037   455.480095     0.000000 
  88.035000   521.000000     0.001919   455.197587     0.000000 
  88.043000   469.000000     0.002132   454.941241     0.000000 
  88.051000   433.000000     0.002309   454.707680     0.000000 
  88.059000   397.000000     0.002519   454.494077     0.000000 
  88.067000   415.000000     0.002410   454.298059     0.000000 
  88.075000   463.000000     0.002160   454.117625     0.000000 
  88.083000   458.000000     0.002183   453.951076     0.000000 
  88.091000   456.000000     0.002193   453.796959     0.000000 
  88.099000   469.000000     0.002132   453.654021     0.000000 
  88.107000   443.000000     0.002257   453.521176     0.000000 
  88.115000   415.000000     0.002410   453.397475     0.000000 
  88.123000   426.000000     0.002347   453.282082     0.000000 
  88.131000   452.000000     0.002212   453.174260     0.000000 
  88.139000   476.000000     0.002101   453.073353     0.000000 
  88.147000   447.000000     0.002237   452.978775     0.000000 
  88.155000   438.000000     0.002283   452.890002     0.000000 
  88.163000   475.000000     0.002105   452.806563     0.000000 
  88.171000   465.000000     0.002151   452.728033     0.000000 
  88.179000   437.000000     0.002288   452.654028     0.000000 
  88.187000   470.000000     0.002128   452.584203     0.000000 
  88.195000   485.000000     0.002062   452.518242     0.000000 
  88.203000   439.000000     0.002278   452.455859     0.000000 
  88.211000   442.000000     0.002262   452.396795     0.000000 
  88.219000   463.000000     0.002160   452.340811     0.000000 
  88.227000   485.000000     0.002062   452.287691     0.000000 
  88.235000   449.000000     0.002227   452.237238     0.000000 
  88.243000   468.000000     0.002137   452.189269     0.000000 
  88.251000   467.000000     0.002141   452.143618     0.000000 
  88.259000   466.000000     0.002146   452.100133     0.000000 
  88.267000   493.000000     0.002028   452.058672     0.000000 
  88.275000   470.000000     0.002128   452.019107     0.000000 
  88.283000   459.000000     0.002179   451.981317     0.000000 
  88.291000   473.000000     0.002114   451.945194     0.000000 
  88.299000   443.000000     0.002257   451.910635     0.000000 
  88.307000   402.000000     0.002488   451.877545     0.000000 
  88.315000   424.000000     0.002358   451.845839     0.000000 
  88.323000   470.000000     0.002128   451.815434     0.000000 
  88.331000   465.000000     0.002151   451.786256     0.000000 
  88.339000   468.000000     0.002137   451.758234     0.000000 
  88.347000   464.000000     0.002155   451.731305     0.000000 
  88.355000   444.000000     0.002252   451.705408     0.000000 
  88.363000   492.000000     0.002033   451.680485     0.000000 
  88.371000   433.000000     0.002309   451.656485     0.000000 
  88.379000   455.000000     0.002198   451.633359     0.000000 
  88.387000   452.000000     0.002212   451.611061     0.000000 
  88.395000   487.000000     0.002053   451.589547     0.000000 
  88.403000   456.000000     0.002193   451.568779     0.000000 
  88.411000   472.000000     0.002119   451.548717     0.000000 
  88.419000   482.000000     0.002075   451.529327     0.000000 
  88.427000   464.000000     0.002155   451.510576     0.000000 
  88.435000   460.000000     0.002174   451.492432     0.000000 
  88.443000   483.000000     0.002070   451.474867     0.000000 
  88.451000   490.000000     0.002041   451.457852     0.000000 
  88.459000   486.000000     0.002058   451.441363     0.000000 
  88.467000   462.000000     0.002165   451.425374     0.000000 
  88.475000   450.000000     0.002222   451.409863     0.000000 
  88.483000   469.000000     0.002132   451.394808     0.000000 
  88.491000   449.000000     0.002227   451.380189     0.000000 
  88.499000   429.000000     0.002331   451.365986     0.000000 
  88.507000   481.000000     0.002079   451.352180     0.000000 
  88.515000   454.000000     0.002203   451.338756     0.000000 
  88.523000   451.000000     0.002217   451.325696     0.000000 
  88.531000   492.000000     0.002033   451.312984     0.000000 
  88.539000   450.000000     0.002222   451.300608     0.000000 
  88.547000   475.000000     0.002105   451.288551     0.000000 
  88.555000   486.000000     0.002058   451.276802     0.000000 
  88.563000   447.000000     0.002237   451.265348     0.000000 
  88.571000   424.000000     0.002358   451.254176     0.000000 
  88.579000   465.000000     0.002151   451.243276     0.000000 
  88.587000   496.000000     0.002016   451.232637     0.000000 
  88.595000   455.000000     0.002198   451.222249     0.000000 
  88.603000   473.000000     0.002114   451.212102     0.000000 
  88.611000   499.000000     0.002004   451.202187     0.000000 
  88.619000   490.000000     0.002041   451.192495     0.000000 
  88.627000   462.000000     0.002165   451.182899     0.000000 
  88.635000   448.000000     0.002232   451.173630     0.000000 
  88.643000   474.000000     0.002110   451.164559     0.000000 
  88.651000   500.000000     0.002000   451.155680     0.000000 
  88.659000   471.000000     0.002123   451.146986     0.000000 
  88.667000   457.000000     0.002188   451.138471     0.000000 
  88.675000   459.000000     0.002179   451.130128     0.000000 
  88.683000   448.000000     0.002232   451.121951     0.000000 
  88.691000   432.000000     0.002315   451.113934     0.000000 
  88.699000   460.000000     0.002174   451.106071     0.000000 
  88.707000   468.000000     0.002137   451.098359     0.000000 
  88.715000   472.000000     0.002119   451.090790     0.000000 
  88.723000   428.000000     0.002336   451.083362     0.000000 
  88.731000   428.000000     0.002336   451.076068     0.000000 
  88.739000   432.000000     0.002315   451.068905     0.000000 
  88.747000   462.000000     0.002165   451.048116     0.000000 
  88.755000   506.000000     0.001976   451.041296     0.000000 
  88.763000   471.000000     0.002123   451.034594     0.000000 
  88.771000   465.000000     0.002151   451.028005     0.000000 
  88.779000   449.000000     0.002227   451.021526     0.000000 
  88.787000   405.000000     0.002469   451.015154     0.000000 
  88.795000   470.000000     0.002128   451.008885     0.000000 
  88.803000   453.000000     0.002208   451.002716     0.000000 
  88.811000   418.000000     0.002392   450.996645     0.000000 
  88.819000   450.000000     0.002222   451.012959     0.000000 
  88.827000   447.000000     0.002237   451.007204     0.000000 
  88.835000   438.000000     0.002283   451.001538     0.000000 
  88.843000   454.000000     0.002203   450.995960     0.000000 
  88.851000   465.000000     0.002151   450.990467     0.000000 
  88.859000   450.000000     0.002222   450.985056     0.000000 
  88.867000   431.000000     0.002320   450.979724     0.000000 
  88.875000   431.000000     0.002320   450.974471     0.000000 
  88.883000   435.000000     0.002299   450.969293     0.000000 
  88.891000   443.000000     0.002257   450.964188     0.000000 
  88.899000   432.000000     0.002315   450.959155     0.000000 
  88.907000   468.000000     0.002137   450.954191     0.000000 
  88.915000   426.000000     0.002347   450.949295     0.000000 
  88.923000   452.000000     0.002212   451.035064     0.000000 
  88.931000   425.000000     0.002353   451.030830     0.000000 
  88.939000   486.000000     0.002058   451.026663     0.000000 
  88.947000   509.000000     0.001965   451.022562     0.000000 
  88.955000   480.000000     0.002083   451.018525     0.000000 
  88.963000   415.000000     0.002410   451.014551     0.000000 
  88.971000   441.000000     0.002268   451.010638     0.000000 
  88.979000   437.000000     0.002288   451.006786     0.000000 
  88.987000   446.000000     0.002242   451.002992     0.000000 
  88.995000   486.000000     0.002058   450.999255     0.000000 
  89.003000   484.000000     0.002066   450.995575     0.000000 
  89.011000   474.000000     0.002110   450.991950     0.000000 
  89.019000   470.000000     0.002128   450.988378     0.000000 
  89.027000   469.000000     0.002132   450.984860     0.000000 
  89.035000   463.000000     0.002160   450.981394     0.000000 
  89.043000   451.000000     0.002217   450.977979     0.000000 
  89.051000   436.000000     0.002294   450.974613     0.000000 
  89.059000   438.000000     0.002283   450.971297     0.000000 
  89.067000   445.000000     0.002247   450.968029     0.000000 
  89.075000   452.000000     0.002212   450.964808     0.000000 
  89.083000   448.000000     0.002232   450.961633     0.000000 
  89.091000   497.000000     0.002012   450.958504     0.000000 
  89.099000   495.000000     0.002020   450.955420     0.000000 
  89.107000   439.000000     0.002278   450.952381     0.000000 
  89.115000   455.000000     0.002198   450.949384     0.000000 
  89.123000   456.000000     0.002193   450.946430     0.000000 
  89.131000   497.000000     0.002012   450.943519     0.000000 
  89.139000   477.000000     0.002096   450.940648     0.000000 
  89.147000   452.000000     0.002212   450.937819     0.000000 
  89.155000   462.000000     0.002165   450.935029     0.000000 
  89.163000   458.000000     0.002183   450.932280     0.000000 
  89.171000   463.000000     0.002160   450.929569     0.000000 
  89.179000   504.000000     0.001984   450.926897     0.000000 
  89.187000   466.000000     0.002146   450.924263     0.000000 
  89.195000   451.000000     0.002217   450.921666     0.000000 
  89.203000   465.000000     0.002151   450.919107     0.000000 
  89.211000   517.000000     0.001934   450.916584     0.000000 
  89.219000   489.000000     0.002045   450.914097     0.000000 
  89.227000   455.000000     0.002198   450.911647     0.000000 
  89.235000   461.000000     0.002169   450.909231     0.000000 
  89.243000   491.000000     0.002037   450.906850     0.000000 
  89.251000   465.000000     0.002151   450.904505     0.000000 
  89.259000   471.000000     0.002123   450.902193     0.000000 
  89.267000   465.000000     0.002151   450.899915     0.000000 
  89.275000   427.000000     0.002342   450.897671     0.000000 
  89.283000   405.000000     0.002469   450.895460     0.000000 
  89.291000   400.000000     0.002500   450.893282     0.000000 
  89.299000   457.000000     0.002188   450.891137     0.000000 
  89.307000   448.000000     0.002232   450.889024     0.000000 
  89.315000   444.000000     0.002252   450.886944     0.000000 
  89.323000   443.000000     0.002257   450.884896     0.000000 
  89.331000   503.000000     0.001988   450.882879     0.000000 
  89.339000   455.000000     0.002198   450.880894     0.000000 
  89.347000   490.000000     0.002041   450.878940     0.000000 
  89.355000   469.000000     0.002132   450.877017     0.000000 
  89.363000   463.000000     0.002160   450.875125     0.000000 
  89.371000   455.000000     0.002198   450.873265     0.000000 
  89.379000   439.000000     0.002278   450.871434     0.000000 
  89.387000   460.000000     0.002174   450.869635     0.000000 
  89.395000   466.000000     0.002146   450.867865     0.000000 
  89.403000   472.000000     0.002119   450.866126     0.000000 
  89.411000   437.000000     0.002288   450.864417     0.000000 
  89.419000   443.000000     0.002257   450.862738     0.000000 
  89.427000   476.000000     0.002101   450.861089     0.000000 
  89.435000   468.000000     0.002137   450.859470     0.000000 
  89.443000   453.000000     0.002208   450.857881     0.000000 
  89.451000   430.000000     0.002326   450.856322     0.000000 
  89.459000   464.000000     0.002155   450.854792     0.000000 
  89.467000   468.000000     0.002137   450.853292     0.000000 
  89.475000   442.000000     0.002262   450.851821     0.000000 
  89.483000   445.000000     0.002247   450.850381     0.000000 
  89.491000   431.000000     0.002320   450.848969     0.000000 
  89.499000   429.000000     0.002331   450.847588     0.000000 
  89.507000   462.000000     0.002165   450.846236     0.000000 
  89.515000   478.000000     0.002092   450.844914     0.000000 
  89.523000   426.000000     0.002347   450.843621     0.000000 
  89.531000   466.000000     0.002146   450.842358     0.000000 
  89.539000   452.000000     0.002212   450.841125     0.000000 
  89.547000   450.000000     0.002222   450.839922     0.000000 
  89.555000   474.000000     0.002110   450.838749     0.000000 
  89.563000   455.000000     0.002198   450.837605     0.000000 
  89.571000   460.000000     0.002174   450.836492     0.000000 
  89.579000   455.000000     0.002198   450.835409     0.000000 
  89.587000   455.000000     0.002198   450.834356     0.000000 
  89.595000   450.000000     0.002222   450.833333     0.000000 
  89.603000   478.000000     0.002092   450.832341     0.000000 
  89.611000   460.000000     0.002174   450.831380     0.000000 
  89.619000   454.000000     0.002203   450.830449     0.000000 
  89.627000   483.000000     0.002070   450.829549     0.000000 
  89.635000   489.000000     0.002045   450.828680     0.000000 
  89.643000   490.000000     0.002041   450.827843     0.000000 
  89.651000   451.000000     0.002217   450.827037     0.000000 
  89.659000   472.000000     0.002119   450.826263     0.000000 
  89.667000   447.000000     0.002237   450.825520     0.000000 
  89.675000   467.000000     0.002141   450.824809     0.000000 
  89.683000   536.000000     0.001866   450.824131     0.000000 
  89.691000   483.000000     0.002070   450.823485     0.000000 
  89.699000   474.000000     0.002110   450.822872     0.000000 
  89.707000   443.000000     0.002257   450.822292     0.000000 
  89.715000   410.000000     0.002439   450.821745     0.000000 
  89.723000   432.000000     0.002315   450.821232     0.000000 
  89.731000   486.000000     0.002058   450.820752     0.000000 
  89.739000   460.000000     0.002174   450.820307     0.000000 
  89.747000   469.000000     0.002132   450.819896     0.000000 
  89.755000   464.000000     0.002155   450.819519     0.000000 
  89.763000   478.000000     0.002092   450.819178     0.000000 
  89.771000   484.000000     0.002066   450.818872     0.000000 
  89.779000   472.000000     0.002119   450.818601     0.000000 
  89.787000   437.000000     0.002288   450.818367     0.000000 
  89.795000   429.000000     0.002331   450.818169     0.000000 
  89.803000   455.000000     0.002198   450.818008     0.000000 
  89.811000   449.000000     0.002227   450.817885     0.000000 
  89.819000   492.000000     0.002033   450.817799     0.000000 
  89.827000   483.000000     0.002070   450.817751     0.000000 
  89.835000   450.000000     0.002222   450.817741     0.000000 
  89.843000   404.000000     0.002475   450.817771     0.000000 
  89.851000   437.000000     0.002288   450.817840     0.000000 
  89.859000   506.000000     0.001976   450.817949     0.000000 
  89.867000   481.000000     0.002079   450.818098     0.000000 
  89.875000   470.000000     0.002128   450.818288     0.000000 
  89.883000   453.000000     0.002208   450.818520     0.000000 
  89.891000   396.000000     0.002525   450.818794     0.000000 
  89.899000   419.000000     0.002387   450.819110     0.000000 
  89.907000   453.000000     0.002208   450.819469     0.000000 
  89.915000   474.000000     0.002110   450.819872     0.000000 
  89.923000   413.000000     0.002421   450.820320     0.000000 
  89.931000   425.000000     0.002353   450.820812     0.000000 
  89.939000   463.000000     0.002160   450.821350     0.000000 
  89.947000   472.000000     0.002119   450.821934     0.000000 
  89.955000   460.000000     0.002174   450.822565     0.000000 
  89.963000   397.000000     0.002519   450.823244     0.000000 
  89.971000   402.000000     0.002488   450.823971     0.000000 
  89.979000   445.000000     0.002247   450.824747     0.000000 
  89.987000   437.000000     0.002288   450.825573     0.000000 
  89.995000   428.000000     0.002336   450.826450     0.000000 
  90.003000   441.000000     0.002268   450.827378     0.000000 
  90.011000   476.000000     0.002101   450.828358     0.000000 
  90.019000   487.000000     0.002053   450.829392     0.000000 
  90.027000   481.000000     0.002079   450.830479     0.000000 
  90.035000   433.000000     0.002309   450.831621     0.000000 
  90.043000   423.000000     0.002364   450.832819     0.000000 
  90.051000   442.000000     0.002262   450.834074     0.000000 
  90.059000   445.000000     0.002247   450.835386     0.000000 
  90.067000   455.000000     0.002198   450.836757     0.000000 
  90.075000   427.000000     0.002342   450.838188     0.000000 
  90.083000   415.000000     0.002410   450.839679     0.000000 
  90.091000   429.000000     0.002331   450.841233     0.000000 
  90.099000   389.000000     0.002571   450.842849     0.000000 
  90.107000   444.000000     0.002252   450.844530     0.000000 
  90.115000   482.000000     0.002075   450.846276     0.000000 
  90.123000   465.000000     0.002151   450.848088     0.000000 
  90.131000   454.000000     0.002203   450.849968     0.000000 
  90.139000   430.000000     0.002326   450.851917     0.000000 
  90.147000   440.000000     0.002273   450.853937     0.000000 
  90.155000   445.000000     0.002247   450.856028     0.000000 
  90.163000   452.000000     0.002212   450.858192     0.000000 
  90.171000   488.000000     0.002049   451.005495     0.000000 
  90.179000   480.000000     0.002083   451.008628     0.000000 
  90.187000   450.000000     0.002222   451.011846     0.000000 
  90.195000   439.000000     0.002278   451.015150     0.000000 
  90.203000   438.000000     0.002283   451.018542     0.000000 
  90.211000   491.000000     0.002037   451.022024     0.000000 
  90.219000   458.000000     0.002183   450.982498     0.000000 
  90.227000   449.000000     0.002227   450.986447     0.000000 
  90.235000   471.000000     0.002123   450.990489     0.000000 
  90.243000   470.000000     0.002128   450.994626     0.000000 
  90.251000   422.000000     0.002370   450.998858     0.000000 
  90.259000   479.000000     0.002088   451.003189     0.000000 
  90.267000   479.000000     0.002088   451.007621     0.000000 
  90.275000   450.000000     0.002222   451.012155     0.000000 
  90.283000   484.000000     0.002066   451.016795     0.000000 
  90.291000   447.000000     0.002237   451.021542     0.000000 
  90.299000   438.000000     0.002283   451.026399     0.000000 
  90.307000   447.000000     0.002237   451.031368     0.000000 
  90.315000   473.000000     0.002114   451.036452     0.000000 
  90.323000   479.000000     0.002088   451.041654     0.000000 
  90.331000   451.000000     0.002217   451.046976     0.000000 
  90.339000   452.000000     0.002212   451.052421     0.000000 
  90.347000   458.000000     0.002183   451.057993     0.000000 
  90.355000   450.000000     0.002222   451.063693     0.000000 
  90.363000   459.000000     0.002179   451.069525     0.000000 
  90.371000   449.000000     0.002227   451.075493     0.000000 
  90.379000   438.000000     0.002283   451.081599     0.000000 
  90.387000   454.000000     0.002203   451.087846     0.000000 
  90.395000   452.000000     0.002212   451.094240     0.000000 
  90.403000   443.000000     0.002257   451.100782     0.000000 
  90.411000   405.000000     0.002469   451.107477     0.000000 
  90.419000   436.000000     0.002294   451.114328     0.000000 
  90.427000   491.000000     0.002037   451.121340     0.000000 
  90.435000   475.000000     0.002105   451.128516     0.000000 
  90.443000   413.000000     0.002421   451.135861     0.000000 
  90.451000   439.000000     0.002278   451.143379     0.000000 
  90.459000   465.000000     0.002151   451.151075     0.000000 
  90.467000   454.000000     0.002203   451.158953     0.000000 
  90.475000   422.000000     0.002370   451.167018     0.000000 
  90.483000   417.000000     0.002398   451.175275     0.000000 
  90.491000   459.000000     0.002179   451.183730     0.000000 
  90.499000   480.000000     0.002083   451.192387     0.000000 
  90.507000   456.000000     0.002193   451.201251     0.000000 
  90.515000   472.000000     0.002119   451.210330     0.000000 
  90.523000   468.000000     0.002137   451.219629     0.000000 
  90.531000   450.000000     0.002222   451.229153     0.000000 
  90.539000   449.000000     0.002227   451.238909     0.000000 
  90.547000   426.000000     0.002347   451.248904     0.000000 
  90.555000   419.000000     0.002387   451.259145     0.000000 
  90.563000   422.000000     0.002370   451.269639     0.000000 
  90.571000   443.000000     0.002257   451.280392     0.000000 
  90.579000   438.000000     0.002283   451.292565     0.000000 
  90.587000   435.000000     0.002299   451.303868     0.000000 
  90.595000   436.000000     0.002294   451.315455     0.000000 
  90.603000   424.000000     0.002358   451.327334     0.000000 
  90.611000   411.000000     0.002433   451.339514     0.000000 
  90.619000   447.000000     0.002237   451.352004     0.000000 
  90.627000   443.000000     0.002257   451.364814     0.000000 
  90.635000   454.000000     0.002203   451.377955     0.000000 
  90.643000   452.000000     0.002212   451.391435     0.000000 
  90.651000   476.000000     0.002101   451.405266     0.000000 
  90.659000   436.000000     0.002294   451.419460     0.000000 
  90.667000   441.000000     0.002268   451.434027     0.000000 
  90.675000   429.000000     0.002331   451.448980     0.000000 
  90.683000   445.000000     0.002247   451.464331     0.000000 
  90.691000   444.000000     0.002252   451.480094     0.000000 
  90.699000   475.000000     0.002105   451.496283     0.000000 
  90.707000   488.000000     0.002049   451.512911     0.000000 
  90.715000   461.000000     0.002169   451.529994     0.000000 
  90.723000   431.000000     0.002320   451.547547     0.000000 
  90.731000   432.000000     0.002315   451.565587     0.000000 
  90.739000   433.000000     0.002309   451.584131     0.000000 
  90.747000   438.000000     0.002283   451.603195     0.000000 
  90.755000   450.000000     0.002222   451.622800     0.000000 
  90.763000   476.000000     0.002101   451.642963     0.000000 
  90.771000   458.000000     0.002183   451.663707     0.000000 
  90.779000   419.000000     0.002387   451.685051     0.000000 
  90.787000   446.000000     0.002242   451.707018     0.000000 
  90.795000   468.000000     0.002137   451.729632     0.000000 
  90.803000   422.000000     0.002370   451.752916     0.000000 
  90.811000   444.000000     0.002252   451.776897     0.000000 
  90.819000   413.000000     0.002421   451.801601     0.000000 
  90.827000   434.000000     0.002304   451.827057     0.000000 
  90.835000   441.000000     0.002268   451.853294     0.000000 
  90.843000   496.000000     0.002016   451.880343     0.000000 
  90.851000   452.000000     0.002212   451.908237     0.000000 
  90.859000   463.000000     0.002160   451.937009     0.000000 
  90.867000   422.000000     0.002370   451.966698     0.000000 
  90.875000   433.000000     0.002309   451.997339     0.000000 
  90.883000   438.000000     0.002283   452.028974     0.000000 
  90.891000   435.000000     0.002299   452.061645     0.000000 
  90.899000   459.000000     0.002179   452.095396     0.000000 
  90.907000   451.000000     0.002217   452.130274     0.000000 
  90.915000   445.000000     0.002247   452.166328     0.000000 
  90.923000   443.000000     0.002257   452.203612     0.000000 
  90.931000   447.000000     0.002237   452.242179     0.000000 
  90.939000   413.000000     0.002421   452.282090     0.000000 
  90.947000   417.000000     0.002398   452.323405     0.000000 
  90.955000   457.000000     0.002188   452.366191     0.000000 
  90.963000   467.000000     0.002141   452.410516     0.000000 
  90.971000   441.000000     0.002268   452.456454     0.000000 
  90.979000   478.000000     0.002092   452.504084     0.000000 
  90.987000   468.000000     0.002137   452.553489     0.000000 
  90.995000   418.000000     0.002392   452.604756     0.000000 
  91.003000   492.000000     0.002033   452.657979     0.000000 
  91.011000   464.000000     0.002155   452.713258     0.000000 
  91.019000   489.000000     0.002045   452.770700     0.000000 
  91.027000   452.000000     0.002212   452.830417     0.000000 
  91.035000   432.000000     0.002315   452.892530     0.000000 
  91.043000   425.000000     0.002353   452.957169     0.000000 
  91.051000   449.000000     0.002227   453.024471     0.000000 
  91.059000   438.000000     0.002283   453.094583     0.000000 
  91.067000   464.000000     0.002155   453.167664     0.000000 
  91.075000   449.000000     0.002227   453.243883     0.000000 
  91.083000   450.000000     0.002222   453.323421     0.000000 
  91.091000   446.000000     0.002242   453.406472     0.000000 
  91.099000   430.000000     0.002326   453.493247     0.000000 
  91.107000   456.000000     0.002193   453.583970     0.000000 
  91.115000   435.000000     0.002299   453.678885     0.000000 
  91.123000   444.000000     0.002252   453.778252     0.000000 
  91.131000   440.000000     0.002273   453.882354     0.000000 
  91.139000   434.000000     0.002304   453.991498     0.000000 
  91.147000   461.000000     0.002169   454.106013     0.000000 
  91.155000   457.000000     0.002188   454.226259     0.000000 
  91.163000   441.000000     0.002268   454.352625     0.000000 
  91.171000   435.000000     0.002299   454.485535     0.000000 
  91.179000   440.000000     0.002273   454.625451     0.000000 
  91.187000   445.000000     0.002247   454.772879     0.000000 
  91.195000   462.000000     0.002165   454.928372     0.000000 
  91.203000   437.000000     0.002288   455.092541     0.000000 
  91.211000   439.000000     0.002278   455.266057     0.000000 
  91.219000   430.000000     0.002326   455.449664     0.000000 
  91.227000   448.000000     0.002232   455.644191     0.000000 
  91.235000   453.000000     0.002208   455.850564     0.000000 
  91.243000   452.000000     0.002212   456.069825     0.000000 
  91.251000   414.000000     0.002415   456.303147     0.000000 
  91.259000   445.000000     0.002247   456.551867     0.000000 
  91.267000   432.000000     0.002315   456.817508     0.000000 
  91.275000   400.000000     0.002500   457.101814     0.000000 
  91.283000   402.000000     0.002488   457.406794     0.000000 
  91.291000   389.000000     0.002571   457.734765     0.000000 
  91.299000   403.000000     0.002481   458.088405     0.000000 
  91.307000   408.000000     0.002451   458.470810     0.000000 
  91.315000   438.000000     0.002283   458.885556     0.000000 
  91.323000   470.000000     0.002128   459.336769     0.000000 
  91.331000   461.000000     0.002169   459.829188     0.000000 
  91.339000   412.000000     0.002427   460.368241     0.000000 
  91.347000   415.000000     0.002410   460.960105     0.000000 
  91.355000   466.000000     0.002146   461.611772     0.000000 
  91.363000   418.000000     0.002392   462.331101     0.000000 
  91.371000   457.000000     0.002188   463.126866     0.000000 
  91.379000   487.000000     0.002053   464.008782     0.000000 
  91.387000   455.000000     0.002198   464.987529     0.000000 
  91.395000   461.000000     0.002169   466.074747     0.000000 
  91.403000   453.000000     0.002208   467.283016     0.000000 
  91.411000   449.000000     0.002227   468.625805     0.000000 
  91.419000   436.000000     0.002294   470.117374     0.000000 
  91.427000   481.000000     0.002079   471.772619     0.000000 
  91.435000   411.000000     0.002433   473.606815     0.000000 
  91.443000   423.000000     0.002364   475.635208     0.000000 
  91.451000   470.000000     0.002128   477.872395     0.000000 
  91.459000   455.000000     0.002198   480.331396     0.000000 
  91.467000   469.000000     0.002132   483.022351     0.000000 
  91.475000   479.000000     0.002088   485.950781     0.000000 
  91.483000   463.000000     0.002160   489.115469     0.000000 
  91.491000   473.000000     0.002114   492.506193     0.000000 
  91.499000   476.000000     0.002101   496.101838     0.000000 
  91.507000   492.000000     0.002033   499.869760     0.000000 
  91.515000   495.000000     0.002020   503.767473     0.000000 
  91.523000   483.000000     0.002070   507.747574     0.000000 
  91.531000   487.000000     0.002053   511.765934     0.000000 
  91.539000   503.000000     0.001988   515.791621     0.000000 
  91.547000   479.000000     0.002088   519.815505     0.000000 
  91.555000   501.000000     0.001996   523.853901     0.000000 
  91.563000   507.000000     0.001972   527.944862     0.000000 
  91.571000   512.000000     0.001953   532.137180     0.000000 
  91.579000   494.000000     0.002024   536.474543     0.000000 
  91.587000   579.000000     0.001727   540.978138     0.000000 
  91.595000   548.000000     0.001825   545.630505     0.000000 
  91.603000   526.000000     0.001901   550.362368     0.000000 
  91.611000   542.000000     0.001845   555.043873     0.000000 
  91.619000   548.000000     0.001825   559.482263     0.000000 
  91.627000   568.000000     0.001761   563.429133     0.000000 
  91.635000   620.000000     0.001613   566.600608     0.000000 
  91.643000   667.000000     0.001499   568.711705     0.000000 
  91.651000   694.000000     0.001441   569.521105     0.000000 
  91.659000   710.000000     0.001408   568.876246     0.000000 
  91.667000   743.000000     0.001346   566.744936     0.000000 
  91.675000   721.000000     0.001387   563.222262     0.000000 
  91.683000   687.000000     0.001456   558.510415     0.000000 
  91.691000   630.000000     0.001587   552.879444     0.000000 
  91.699000   589.000000     0.001698   546.622550     0.000000 
  91.707000   547.000000     0.001828   540.018321     0.000000 
  91.715000   489.000000     0.002045   533.306404     0.000000 
  91.723000   511.000000     0.001957   526.676986     0.000000 
  91.731000   482.000000     0.002075   520.270641     0.000000 
  91.739000   497.000000     0.002012   514.184166     0.000000 
  91.747000   510.000000     0.001961   508.478752     0.000000 
  91.755000   511.000000     0.001957   503.188170     0.000000 
  91.763000   538.000000     0.001859   498.325864     0.000000 
  91.771000   502.000000     0.001992   493.890590     0.000000 
  91.779000   509.000000     0.001965   489.870719     0.000000 
  91.787000   480.000000     0.002083   486.247426     0.000000 
  91.795000   491.000000     0.002037   482.997081     0.000000 
  91.803000   481.000000     0.002079   480.093028     0.000000 
  91.811000   498.000000     0.002008   477.506966     0.000000 
  91.819000   474.000000     0.002110   475.210022     0.000000 
  91.827000   469.000000     0.002132   473.173587     0.000000 
  91.835000   438.000000     0.002283   471.369982     0.000000 
  91.843000   456.000000     0.002193   469.772957     0.000000 
  91.851000   483.000000     0.002070   468.358043     0.000000 
  91.859000   464.000000     0.002155   467.102796     0.000000 
  91.867000   476.000000     0.002101   465.986914     0.000000 
  91.875000   494.000000     0.002024   464.992271     0.000000 
  91.883000   453.000000     0.002208   464.102870     0.000000 
  91.891000   455.000000     0.002198   463.304737     0.000000 
  91.899000   461.000000     0.002169   462.585776     0.000000 
  91.907000   438.000000     0.002283   461.935595     0.000000 
  91.915000   496.000000     0.002016   461.345321     0.000000 
  91.923000   456.000000     0.002193   460.807408     0.000000 
  91.931000   462.000000     0.002165   460.315461     0.000000 
  91.939000   446.000000     0.002242   459.864065     0.000000 
  91.947000   454.000000     0.002203   459.448631     0.000000 
  91.955000   459.000000     0.002179   459.065263     0.000000 
  91.963000   493.000000     0.002028   458.710640     0.000000 
  91.971000   470.000000     0.002128   458.381918     0.000000 
  91.979000   431.000000     0.002320   458.076650     0.000000 
  91.987000   437.000000     0.002288   457.792713     0.000000 
  91.995000   474.000000     0.002110   457.528257     0.000000 
  92.003000   462.000000     0.002165   457.281656     0.000000 
  92.011000   523.000000     0.001912   457.051475     0.000000 
  92.019000   454.000000     0.002203   456.836437     0.000000 
  92.027000   433.000000     0.002309   456.635404     0.000000 
  92.035000   447.000000     0.002237   456.447354     0.000000 
  92.043000   476.000000     0.002101   456.271365     0.000000 
  92.051000   486.000000     0.002058   456.106605     0.000000 
  92.059000   437.000000     0.002288   455.952322     0.000000 
  92.067000   457.000000     0.002188   455.807830     0.000000 
  92.075000   445.000000     0.002247   455.672505     0.000000 
  92.083000   447.000000     0.002237   455.545780     0.000000 
  92.091000   448.000000     0.002232   455.427137     0.000000 
  92.099000   416.000000     0.002404   455.316101     0.000000 
  92.107000   471.000000     0.002123   455.212239     0.000000 
  92.115000   479.000000     0.002088   455.115155     0.000000 
  92.123000   500.000000     0.002000   455.024486     0.000000 
  92.131000   484.000000     0.002066   454.939900     0.000000 
  92.139000   453.000000     0.002208   454.861092     0.000000 
  92.147000   417.000000     0.002398   454.787782     0.000000 
  92.155000   419.000000     0.002387   454.719717     0.000000 
  92.163000   456.000000     0.002193   454.656662     0.000000 
  92.171000   445.000000     0.002247   454.598404     0.000000 
  92.179000   494.000000     0.002024   454.544747     0.000000 
  92.187000   461.000000     0.002169   454.495514     0.000000 
  92.195000   428.000000     0.002336   454.450543     0.000000 
  92.203000   430.000000     0.002326   454.409686     0.000000 
  92.211000   436.000000     0.002294   454.372811     0.000000 
  92.219000   478.000000     0.002092   454.339798     0.000000 
  92.227000   488.000000     0.002049   454.310538     0.000000 
  92.235000   475.000000     0.002105   454.284937     0.000000 
  92.243000   447.000000     0.002237   454.262908     0.000000 
  92.251000   453.000000     0.002208   454.244377     0.000000 
  92.259000   438.000000     0.002283   454.229280     0.000000 
  92.267000   433.000000     0.002309   454.217562     0.000000 
  92.275000   455.000000     0.002198   454.209177     0.000000 
  92.283000   466.000000     0.002146   454.204089     0.000000 
  92.291000   442.000000     0.002262   454.202270     0.000000 
  92.299000   437.000000     0.002288   454.203701     0.000000 
  92.307000   381.000000     0.002625   454.208370     0.000000 
  92.315000   408.000000     0.002451   454.216275     0.000000 
  92.323000   472.000000     0.002119   454.227422     0.000000 
  92.331000   502.000000     0.001992   454.241825     0.000000 
  92.339000   467.000000     0.002141   454.259506     0.000000 
  92.347000   467.000000     0.002141   454.280496     0.000000 
  92.355000   461.000000     0.002169   454.304834     0.000000 
  92.363000   434.000000     0.002304   454.332567     0.000000 
  92.371000   455.000000     0.002198   454.363752     0.000000 
  92.379000   488.000000     0.002049   454.398455     0.000000 
  92.387000   511.000000     0.001957   454.436751     0.000000 
  92.395000   502.000000     0.001992   454.478725     0.000000 
  92.403000   454.000000     0.002203   454.524471     0.000000 
  92.411000   417.000000     0.002398   454.574097     0.000000 
  92.419000   405.000000     0.002469   454.627717     0.000000 
  92.427000   439.000000     0.002278   454.685462     0.000000 
  92.435000   434.000000     0.002304   454.747473     0.000000 
  92.443000   449.000000     0.002227   454.813903     0.000000 
  92.451000   487.000000     0.002053   454.884922     0.000000 
  92.459000   475.000000     0.002105   454.960713     0.000000 
  92.467000   466.000000     0.002146   455.041475     0.000000 
  92.475000   397.000000     0.002519   455.127425     0.000000 
  92.483000   432.000000     0.002315   455.218798     0.000000 
  92.491000   465.000000     0.002151   455.315850     0.000000 
  92.499000   471.000000     0.002123   455.418857     0.000000 
  92.507000   491.000000     0.002037   455.528117     0.000000 
  92.515000   449.000000     0.002227   455.643957     0.000000 
  92.523000   418.000000     0.002392   455.766728     0.000000 
  92.531000   455.000000     0.002198   455.896812     0.000000 
  92.539000   498.000000     0.002008   456.034621     0.000000 
  92.547000   476.000000     0.002101   456.180604     0.000000 
  92.555000   449.000000     0.002227   456.335250     0.000000 
  92.563000   474.000000     0.002110   456.499086     0.000000 
  92.571000   469.000000     0.002132   456.672689     0.000000 
  92.579000   439.000000     0.002278   456.856683     0.000000 
  92.587000   454.000000     0.002203   457.051751     0.000000 
  92.595000   489.000000     0.002045   457.258637     0.000000 
  92.603000   527.000000     0.001898   457.478153     0.000000 
  92.611000   507.000000     0.001972   457.711188     0.000000 
  92.619000   466.000000     0.002146   457.958718     0.000000 
  92.627000   436.000000     0.002294   458.221815     0.000000 
  92.635000   438.000000     0.002283   458.501659     0.000000 
  92.643000   474.000000     0.002110   458.799558     0.000000 
  92.651000   473.000000     0.002114   459.116964     0.000000 
  92.659000   442.000000     0.002262   459.455493     0.000000 
  92.667000   475.000000     0.002105   459.816962     0.000000 
  92.675000   435.000000     0.002299   460.203415     0.000000 
  92.683000   451.000000     0.002217   460.617172     0.000000 
  92.691000   470.000000     0.002128   461.060881     0.000000 
  92.699000   467.000000     0.002141   461.537585     0.000000 
  92.707000   475.000000     0.002105   462.050800     0.000000 
  92.715000   498.000000     0.002008   462.604618     0.000000 
  92.723000   462.000000     0.002165   463.203820     0.000000 
  92.731000   505.000000     0.001980   464.196949     0.000000 
  92.739000   500.000000     0.002000   464.906520     0.000000 
  92.747000   476.000000     0.002101   465.681480     0.000000 
  92.755000   470.000000     0.002128   466.530992     0.000000 
  92.763000   465.000000     0.002151   467.465831     0.000000 
  92.771000   484.000000     0.002066   468.498625     0.000000 
  92.779000   465.000000     0.002151   469.644099     0.000000 
  92.787000   467.000000     0.002141   470.919320     0.000000 
  92.795000   482.000000     0.002075   472.343913     0.000000 
  92.803000   461.000000     0.002169   473.940246     0.000000 
  92.811000   471.000000     0.002123   475.733556     0.000000 
  92.819000   501.000000     0.001996   477.751987     0.000000 
  92.827000   473.000000     0.002114   480.026539     0.000000 
  92.835000   441.000000     0.002268   482.590876     0.000000 
  92.843000   467.000000     0.002141   485.481002     0.000000 
  92.851000   495.000000     0.002020   488.734760     0.000000 
  92.859000   472.000000     0.002119   492.391158     0.000000 
  92.867000   528.000000     0.001894   496.489492     0.000000 
  92.875000   495.000000     0.002020   501.068242     0.000000 
  92.883000   493.000000     0.002028   506.163721     0.000000 
  92.891000   466.000000     0.002146   511.808394     0.000000 
  92.899000   476.000000     0.002101   518.028798     0.000000 
  92.907000   489.000000     0.002045   524.842888     0.000000 
  92.915000   455.000000     0.002198   532.256615     0.000000 
  92.923000   481.000000     0.002079   540.259431     0.000000 
  92.931000   518.000000     0.001931   548.924361     0.000000 
  92.939000   558.000000     0.001792   557.977349     0.000000 
  92.947000   536.000000     0.001866   567.421994     0.000000 
  92.955000   548.000000     0.001825   577.107138     0.000000 
  92.963000   555.000000     0.001802   586.822165     0.000000 
  92.971000   552.000000     0.001812   596.289961     0.000000 
  92.979000   580.000000     0.001724   605.167218     0.000000 
  92.987000   605.000000     0.001653   613.057206     0.000000 
  92.995000   623.000000     0.001605   619.539205     0.000000 
  93.003000   662.000000     0.001511   624.214876     0.000000 
  93.011000   686.000000     0.001458   626.765126     0.000000 
  93.019000   726.000000     0.001377   627.004083     0.000000 
  93.027000   753.000000     0.001328   624.913797     0.000000 
  93.035000   744.000000     0.001344   620.647717     0.000000 
  93.043000   719.000000     0.001391   614.501682     0.000000 
  93.051000   708.000000     0.001412   606.862591     0.000000 
  93.059000   653.000000     0.001531   598.150847     0.000000 
  93.067000   603.000000     0.001658   588.771072     0.000000 
  93.075000   581.000000     0.001721   579.079048     0.000000 
  93.083000   566.000000     0.001767   569.365795     0.000000 
  93.091000   541.000000     0.001848   559.855140     0.000000 
  93.099000   513.000000     0.001949   550.709644     0.000000 
  93.107000   524.000000     0.001908   542.040341     0.000000 
  93.115000   486.000000     0.002058   533.917189     0.000000 
  93.123000   499.000000     0.002004   526.378543     0.000000 
  93.131000   510.000000     0.001961   519.439011     0.000000 
  93.139000   510.000000     0.001961   513.095631     0.000000 
  93.147000   497.000000     0.002012   507.332617     0.000000 
  93.155000   511.000000     0.001957   502.124974     0.000000 
  93.163000   503.000000     0.001988   497.441291     0.000000 
  93.171000   486.000000     0.002058   493.245927     0.000000 
  93.179000   500.000000     0.002000   489.500763     0.000000 
  93.187000   503.000000     0.001988   486.166620     0.000000 
  93.195000   498.000000     0.002008   483.204405     0.000000 
  93.203000   496.000000     0.002016   480.576038     0.000000 
  93.211000   508.000000     0.001969   478.245168     0.000000 
  93.219000   524.000000     0.001908   476.177707     0.000000 
  93.227000   524.000000     0.001908   474.342195     0.000000 
  93.235000   467.000000     0.002141   472.710015     0.000000 
  93.243000   519.000000     0.001927   471.255473     0.000000 
  93.251000   515.000000     0.001942   469.955783     0.000000 
  93.259000   416.000000     0.002404   468.790950     0.000000 
  93.267000   501.000000     0.001996   467.743605     0.000000 
  93.275000   475.000000     0.002105   466.798785     0.000000 
  93.283000   530.000000     0.001887   465.943698     0.000000 
  93.291000   461.000000     0.002169   465.167475     0.000000 
  93.299000   474.000000     0.002110   464.460921     0.000000 
  93.307000   477.000000     0.002096   463.816281     0.000000 
  93.315000   507.000000     0.001972   463.227026     0.000000 
  93.323000   459.000000     0.002179   462.687648     0.000000 
  93.331000   471.000000     0.002123   462.193494     0.000000 
  93.339000   473.000000     0.002114   461.740601     0.000000 
  93.347000   470.000000     0.002128   461.325569     0.000000 
  93.355000   471.000000     0.002123   460.945436     0.000000 
  93.363000   490.000000     0.002041   460.597575     0.000000 
  93.371000   505.000000     0.001980   460.279600     0.000000 
  93.379000   502.000000     0.001992   459.989266     0.000000 
  93.387000   504.000000     0.001984   459.724384     0.000000 
  93.395000   489.000000     0.002045   459.482720     0.000000 
  93.403000   482.000000     0.002075   459.261898     0.000000 
  93.411000   456.000000     0.002193   459.059296     0.000000 
  93.419000   474.000000     0.002110   458.871956     0.000000 
  93.427000   463.000000     0.002160   458.696526     0.000000 
  93.435000   474.000000     0.002110   458.529266     0.000000 
  93.443000   471.000000     0.002123   458.366160     0.000000 
  93.451000   520.000000     0.001923   458.203146     0.000000 
  93.459000   466.000000     0.002146   458.036480     0.000000 
  93.467000   442.000000     0.002262   457.863149     0.000000 
  93.475000   468.000000     0.002137   457.681257     0.000000 
  93.483000   456.000000     0.002193   457.490243     0.000000 
  93.491000   457.000000     0.002188   457.290872     0.000000 
  93.499000   471.000000     0.002123   457.084991     0.000000 
  93.507000   486.000000     0.002058   456.875128     0.000000 
  93.515000   504.000000     0.001984   456.664069     0.000000 
  93.523000   503.000000     0.001988   456.454491     0.000000 
  93.531000   490.000000     0.002041   456.248724     0.000000 
  93.539000   470.000000     0.002128   456.048634     0.000000 
  93.547000   443.000000     0.002257   455.855609     0.000000 
  93.555000   458.000000     0.002183   455.670597     0.000000 
  93.563000   475.000000     0.002105   455.494178     0.000000 
  93.571000   473.000000     0.002114   455.326640     0.000000 
  93.579000   491.000000     0.002037   455.168048     0.000000 
  93.587000   417.000000     0.002398   455.018298     0.000000 
  93.595000   475.000000     0.002105   454.877169     0.000000 
  93.603000   500.000000     0.002000   454.744348     0.000000 
  93.611000   435.000000     0.002299   454.619466     0.000000 
  93.619000   432.000000     0.002315   454.502112     0.000000 
  93.627000   497.000000     0.002012   454.391851     0.000000 
  93.635000   469.000000     0.002132   454.288238     0.000000 
  93.643000   428.000000     0.002336   454.190827     0.000000 
  93.651000   473.000000     0.002114   454.099178     0.000000 
  93.659000   485.000000     0.002062   454.012866     0.000000 
  93.667000   488.000000     0.002049   453.931487     0.000000 
  93.675000   461.000000     0.002169   453.854658     0.000000 
  93.683000   484.000000     0.002066   453.782023     0.000000 
  93.691000   456.000000     0.002193   453.783254     0.000000 
  93.699000   436.000000     0.002294   453.718399     0.000000 
  93.707000   460.000000     0.002174   453.656835     0.000000 
  93.715000   440.000000     0.002273   453.598317     0.000000 
  93.723000   444.000000     0.002252   453.542621     0.000000 
  93.731000   471.000000     0.002123   453.489549     0.000000 
  93.739000   470.000000     0.002128   453.438922     0.000000 
  93.747000   484.000000     0.002066   453.390582     0.000000 
  93.755000   471.000000     0.002123   453.344386     0.000000 
  93.763000   492.000000     0.002033   453.300208     0.000000 
  93.771000   498.000000     0.002008   453.257934     0.000000 
  93.779000   509.000000     0.001965   453.217461     0.000000 
  93.787000   486.000000     0.002058   453.178696     0.000000 
  93.795000   486.000000     0.002058   453.141555     0.000000 
  93.803000   492.000000     0.002033   453.105963     0.000000 
  93.811000   449.000000     0.002227   453.071848     0.000000 
  93.819000   497.000000     0.002012   453.039146     0.000000 
  93.827000   419.000000     0.002387   453.007797     0.000000 
  93.835000   453.000000     0.002208   452.977747     0.000000 
  93.843000   416.000000     0.002404   452.948943     0.000000 
  93.851000   485.000000     0.002062   452.921338     0.000000 
  93.859000   476.000000     0.002101   452.894887     0.000000 
  93.867000   486.000000     0.002058   452.869548     0.000000 
  93.875000   468.000000     0.002137   452.845281     0.000000 
  93.883000   467.000000     0.002141   452.822049     0.000000 
  93.891000   511.000000     0.001957   452.799818     0.000000 
  93.899000   478.000000     0.002092   452.778554     0.000000 
  93.907000   461.000000     0.002169   452.758226     0.000000 
  93.915000   503.000000     0.001988   452.738805     0.000000 
  93.923000   515.000000     0.001942   452.720263     0.000000 
  93.931000   485.000000     0.002062   452.702573     0.000000 
  93.939000   500.000000     0.002000   452.685711     0.000000 
  93.947000   529.000000     0.001890   452.669654     0.000000 
  93.955000   516.000000     0.001938   452.654378     0.000000 
  93.963000   481.000000     0.002079   452.639864     0.000000 
  93.971000   421.000000     0.002375   452.626090     0.000000 
  93.979000   444.000000     0.002252   452.613038     0.000000 
  93.987000   438.000000     0.002283   452.600691     0.000000 
  93.995000   467.000000     0.002141   452.589030     0.000000 
  94.003000   499.000000     0.002004   452.578040     0.000000 
  94.011000   482.000000     0.002075   452.567706     0.000000 
  94.019000   420.000000     0.002381   452.558014     0.000000 
  94.027000   465.000000     0.002151   452.548949     0.000000 
  94.035000   474.000000     0.002110   452.540498     0.000000 
  94.043000   456.000000     0.002193   452.532650     0.000000 
  94.051000   486.000000     0.002058   452.525393     0.000000 
  94.059000   495.000000     0.002020   452.518715     0.000000 
  94.067000   452.000000     0.002212   452.512607     0.000000 
  94.075000   462.000000     0.002165   452.507059     0.000000 
  94.083000   448.000000     0.002232   452.502061     0.000000 
  94.091000   468.000000     0.002137   452.497605     0.000000 
  94.099000   470.000000     0.002128   452.493683     0.000000 
  94.107000   457.000000     0.002188   452.490286     0.000000 
  94.115000   486.000000     0.002058   452.487409     0.000000 
  94.123000   458.000000     0.002183   452.485044     0.000000 
  94.131000   485.000000     0.002062   452.483184     0.000000 
  94.139000   503.000000     0.001988   452.481825     0.000000 
  94.147000   502.000000     0.001992   452.480960     0.000000 
  94.155000   490.000000     0.002041   452.480585     0.000000 
  94.163000   456.000000     0.002193   452.480694     0.000000 
  94.171000   501.000000     0.001996   452.481285     0.000000 
  94.179000   482.000000     0.002075   452.482352     0.000000 
  94.187000   491.000000     0.002037   452.483892     0.000000 
  94.195000   510.000000     0.001961   452.485902     0.000000 
  94.203000   472.000000     0.002119   452.488379     0.000000 
  94.211000   477.000000     0.002096   452.491322     0.000000 
  94.219000   447.000000     0.002237   452.494726     0.000000 
  94.227000   451.000000     0.002217   452.498591     0.000000 
  94.235000   470.000000     0.002128   452.502916     0.000000 
  94.243000   493.000000     0.002028   452.507698     0.000000 
  94.251000   449.000000     0.002227   452.512937     0.000000 
  94.259000   432.000000     0.002315   452.518633     0.000000 
  94.267000   457.000000     0.002188   452.524784     0.000000 
  94.275000   494.000000     0.002024   452.509262     0.000000 
  94.283000   489.000000     0.002045   452.516455     0.000000 
  94.291000   484.000000     0.002066   452.524103     0.000000 
  94.299000   482.000000     0.002075   452.532207     0.000000 
  94.307000   466.000000     0.002146   452.540769     0.000000 
  94.315000   469.000000     0.002132   452.549790     0.000000 
  94.323000   507.000000     0.001972   452.559271     0.000000 
  94.331000   486.000000     0.002058   452.569215     0.000000 
  94.339000   488.000000     0.002049   452.579624     0.000000 
  94.347000   482.000000     0.002075   452.590501     0.000000 
  94.355000   463.000000     0.002160   452.601847     0.000000 
  94.363000   422.000000     0.002370   452.613667     0.000000 
  94.371000   499.000000     0.002004   452.625963     0.000000 
  94.379000   493.000000     0.002028   452.638740     0.000000 
  94.387000   467.000000     0.002141   452.652001     0.000000 
  94.395000   472.000000     0.002119   452.575445     0.000000 
  94.403000   496.000000     0.002016   452.590212     0.000000 
  94.411000   481.000000     0.002079   452.605473     0.000000 
  94.419000   450.000000     0.002222   452.621233     0.000000 
  94.427000   481.000000     0.002079   452.637496     0.000000 
  94.435000   488.000000     0.002049   452.654270     0.000000 
  94.443000   443.000000     0.002257   452.671559     0.000000 
  94.451000   412.000000     0.002427   452.689372     0.000000 
  94.459000   474.000000     0.002110   452.707713     0.000000 
  94.467000   490.000000     0.002041   452.726591     0.000000 
  94.475000   457.000000     0.002188   452.746013     0.000000 
  94.483000   478.000000     0.002092   452.765986     0.000000 
  94.491000   453.000000     0.002208   452.786520     0.000000 
  94.499000   400.000000     0.002500   452.807621     0.000000 
  94.507000   440.000000     0.002273   452.829301     0.000000 
  94.515000   495.000000     0.002020   452.851566     0.000000 
  94.523000   520.000000     0.001923   452.874429     0.000000 
  94.531000   472.000000     0.002119   452.897897     0.000000 
  94.539000   477.000000     0.002096   452.921983     0.000000 
  94.547000   487.000000     0.002053   452.946696     0.000000 
  94.555000   514.000000     0.001946   452.972048     0.000000 
  94.563000   523.000000     0.001912   452.998052     0.000000 
  94.571000   486.000000     0.002058   453.024719     0.000000 
  94.579000   483.000000     0.002070   453.052062     0.000000 
  94.587000   443.000000     0.002257   453.080094     0.000000 
  94.595000   508.000000     0.001969   453.108829     0.000000 
  94.603000   494.000000     0.002024   453.138282     0.000000 
  94.611000   472.000000     0.002119   453.168467     0.000000 
  94.619000   469.000000     0.002132   453.199399     0.000000 
  94.627000   463.000000     0.002160   453.231095     0.000000 
  94.635000   443.000000     0.002257   453.263572     0.000000 
  94.643000   469.000000     0.002132   453.296845     0.000000 
  94.651000   484.000000     0.002066   453.330934     0.000000 
  94.659000   473.000000     0.002114   453.365857     0.000000 
  94.667000   499.000000     0.002004   453.401633     0.000000 
  94.675000   490.000000     0.002041   453.438281     0.000000 
  94.683000   453.000000     0.002208   453.475824     0.000000 
  94.691000   472.000000     0.002119   453.514281     0.000000 
  94.699000   493.000000     0.002028   453.553675     0.000000 
  94.707000   490.000000     0.002041   453.594030     0.000000 
  94.715000   475.000000     0.002105   453.635370     0.000000 
  94.723000   502.000000     0.001992   453.677719     0.000000 
  94.731000   509.000000     0.001965   453.721102     0.000000 
  94.739000   455.000000     0.002198   453.765548     0.000000 
  94.747000   502.000000     0.001992   453.811083     0.000000 
  94.755000   523.000000     0.001912   453.857737     0.000000 
  94.763000   523.000000     0.001912   453.905540     0.000000 
  94.771000   475.000000     0.002105   453.954522     0.000000 
  94.779000   509.000000     0.001965   454.004717     0.000000 
  94.787000   463.000000     0.002160   454.056157     0.000000 
  94.795000   507.000000     0.001972   454.108877     0.000000 
  94.803000   535.000000     0.001869   454.162915     0.000000 
  94.811000   509.000000     0.001965   454.218308     0.000000 
  94.819000   504.000000     0.001984   454.275094     0.000000 
  94.827000   478.000000     0.002092   454.333315     0.000000 
  94.835000   487.000000     0.002053   454.393013     0.000000 
  94.843000   491.000000     0.002037   454.454233     0.000000 
  94.851000   468.000000     0.002137   454.517020     0.000000 
  94.859000   466.000000     0.002146   454.581422     0.000000 
  94.867000   438.000000     0.002283   454.647488     0.000000 
  94.875000   428.000000     0.002336   454.715272     0.000000 
  94.883000   478.000000     0.002092   454.784826     0.000000 
  94.891000   485.000000     0.002062   454.856208     0.000000 
  94.899000   472.000000     0.002119   454.929475     0.000000 
  94.907000   463.000000     0.002160   455.004689     0.000000 
  94.915000   434.000000     0.002304   455.081914     0.000000 
  94.923000   480.000000     0.002083   455.161216     0.000000 
  94.931000   477.000000     0.002096   455.242665     0.000000 
  94.939000   486.000000     0.002058   455.359139     0.000000 
  94.947000   478.000000     0.002092   455.445262     0.000000 
  94.955000   482.000000     0.002075   455.533759     0.000000 
  94.963000   458.000000     0.002183   455.624714     0.000000 
  94.971000   454.000000     0.002203   455.718214     0.000000 
  94.979000   461.000000     0.002169   455.814349     0.000000 
  94.987000   494.000000     0.002024   455.913213     0.000000 
  94.995000   494.000000     0.002024   456.014906     0.000000 
  95.003000   476.000000     0.002101   456.119531     0.000000 
  95.011000   442.000000     0.002262   456.227196     0.000000 
  95.019000   446.000000     0.002242   456.338016     0.000000 
  95.027000   470.000000     0.002128   456.452109     0.000000 
  95.035000   455.000000     0.002198   456.569601     0.000000 
  95.043000   463.000000     0.002160   456.690622     0.000000 
  95.051000   475.000000     0.002105   456.815311     0.000000 
  95.059000   441.000000     0.002268   456.943812     0.000000 
  95.067000   451.000000     0.002217   457.076276     0.000000 
  95.075000   476.000000     0.002101   457.212864     0.000000 
  95.083000   490.000000     0.002041   457.353743     0.000000 
  95.091000   505.000000     0.001980   457.499091     0.000000 
  95.099000   475.000000     0.002105   457.649092     0.000000 
  95.107000   468.000000     0.002137   457.803942     0.000000 
  95.115000   401.000000     0.002494   457.963970     0.000000 
  95.123000   428.000000     0.002336   458.129150     0.000000 
  95.131000   477.000000     0.002096   458.299833     0.000000 
  95.139000   488.000000     0.002049   458.476261     0.000000 
  95.147000   457.000000     0.002188   458.658689     0.000000 
  95.155000   454.000000     0.002203   458.847387     0.000000 
  95.163000   456.000000     0.002193   459.042642     0.000000 
  95.171000   460.000000     0.002174   459.244755     0.000000 
  95.179000   453.000000     0.002208   459.454046     0.000000 
  95.187000   488.000000     0.002049   459.670854     0.000000 
  95.195000   441.000000     0.002268   459.895537     0.000000 
  95.203000   453.000000     0.002208   460.128478     0.000000 
  95.211000   450.000000     0.002222   460.370079     0.000000 
  95.219000   469.000000     0.002132   460.620770     0.000000 
  95.227000   480.000000     0.002083   460.881007     0.000000 
  95.235000   439.000000     0.002278   461.151276     0.000000 
  95.243000   448.000000     0.002232   461.432092     0.000000 
  95.251000   474.000000     0.002110   461.724005     0.000000 
  95.259000   487.000000     0.002053   462.027603     0.000000 
  95.267000   479.000000     0.002088   462.343509     0.000000 
  95.275000   459.000000     0.002179   462.672392     0.000000 
  95.283000   433.000000     0.002309   463.014965     0.000000 
  95.291000   510.000000     0.001961   463.371992     0.000000 
  95.299000   462.000000     0.002165   463.744289     0.000000 
  95.307000   501.000000     0.001996   464.132730     0.000000 
  95.315000   486.000000     0.002058   464.538254     0.000000 
  95.323000   453.000000     0.002208   464.961868     0.000000 
  95.331000   483.000000     0.002070   465.404654     0.000000 
  95.339000   500.000000     0.002000   465.867777     0.000000 
  95.347000   479.000000     0.002088   466.352491     0.000000 
  95.355000   427.000000     0.002342   466.860146     0.000000 
  95.363000   460.000000     0.002174   467.392205     0.000000 
  95.371000   499.000000     0.002004   467.950246     0.000000 
  95.379000   496.000000     0.002016   468.535981     0.000000 
  95.387000   448.000000     0.002232   469.151267     0.000000 
  95.395000   462.000000     0.002165   469.798128     0.000000 
  95.403000   508.000000     0.001969   470.478768     0.000000 
  95.411000   492.000000     0.002033   471.195605     0.000000 
  95.419000   477.000000     0.002096   471.951290     0.000000 
  95.427000   518.000000     0.001931   472.748748     0.000000 
  95.435000   497.000000     0.002012   473.591219     0.000000 
  95.443000   454.000000     0.002203   474.482310     0.000000 
  95.451000   447.000000     0.002237   475.426059     0.000000 
  95.459000   504.000000     0.001984   476.427009     0.000000 
  95.467000   468.000000     0.002137   477.490306     0.000000 
  95.475000   513.000000     0.001949   478.621809     0.000000 
  95.483000   478.000000     0.002092   479.828232     0.000000 
  95.491000   472.000000     0.002119   481.117305     0.000000 
  95.499000   489.000000     0.002045   482.497968     0.000000 
  95.507000   547.000000     0.001828   483.980601     0.000000 
  95.515000   495.000000     0.002020   485.577286     0.000000 
  95.523000   490.000000     0.002041   487.302107     0.000000 
  95.531000   468.000000     0.002137   489.171482     0.000000 
  95.539000   473.000000     0.002114   491.204535     0.000000 
  95.547000   472.000000     0.002119   493.423483     0.000000 
  95.555000   501.000000     0.001996   495.854047     0.000000 
  95.563000   479.000000     0.002088   498.525862     0.000000 
  95.571000   468.000000     0.002137   501.472871     0.000000 
  95.579000   475.000000     0.002105   504.733678     0.000000 
  95.587000   504.000000     0.001984   508.351844     0.000000 
  95.595000   493.000000     0.002028   512.376073     0.000000 
  95.603000   478.000000     0.002092   516.860289     0.000000 
  95.611000   494.000000     0.002024   521.863532     0.000000 
  95.619000   467.000000     0.002141   527.449680     0.000000 
  95.627000   506.000000     0.001976   533.686934     0.000000 
  95.635000   522.000000     0.001916   540.647058     0.000000 
  95.643000   501.000000     0.001996   548.404348     0.000000 
  95.651000   521.000000     0.001919   557.034311     0.000000 
  95.659000   570.000000     0.001754   566.612030     0.000000 
  95.667000   590.000000     0.001695   577.210213     0.000000 
  95.675000   592.000000     0.001689   588.896857     0.000000 
  95.683000   530.000000     0.001887   601.732508     0.000000 
  95.691000   559.000000     0.001789   615.766975     0.000000 
  95.699000   582.000000     0.001718   631.035362     0.000000 
  95.707000   543.000000     0.001842   647.553186     0.000000 
  95.715000   590.000000     0.001695   665.310227     0.000000 
  95.723000   640.000000     0.001563   684.262793     0.000000 
  95.731000   653.000000     0.001531   704.323958     0.000000 
  95.739000   670.000000     0.001493   725.351591     0.000000 
  95.747000   703.000000     0.001422   747.134251     0.000000 
  95.755000   753.000000     0.001328   769.375899     0.000000 
  95.763000   808.000000     0.001238   791.681455     0.000000 
  95.771000   853.000000     0.001172   813.546983     0.000000 
  95.779000   929.000000     0.001076   834.359957     0.000000 
  95.787000   974.000000     0.001027   853.416183     0.000000 
  95.795000  1038.000000     0.000963   869.959123     0.000000 
  95.803000  1141.000000     0.000876   883.243554     0.000000 
  95.811000  1258.000000     0.000795   892.618231     0.000000 
  95.819000  1331.000000     0.000751   897.613561     0.000000 
  95.827000  1404.000000     0.000712   898.013888     0.000000 
  95.835000  1401.000000     0.000714   893.894503     0.000000 
  95.843000  1363.000000     0.000734   885.612228     0.000000 
  95.851000  1318.000000     0.000759   873.752430     0.000000 
  95.859000  1184.000000     0.000845   859.047910     0.000000 
  95.867000  1151.000000     0.000869   842.290796     0.000000 
  95.875000  1058.000000     0.000945   824.112204     0.000000 
  95.883000   948.000000     0.001055   805.502843     0.000000 
  95.891000   827.000000     0.001209   786.918433     0.000000 
  95.899000   835.000000     0.001198   768.846387     0.000000 
  95.907000   787.000000     0.001271   751.665140     0.000000 
  95.915000   722.000000     0.001385   735.655464     0.000000 
  95.923000   683.000000     0.001464   721.014526     0.000000 
  95.931000   670.000000     0.001493   707.869538     0.000000 
  95.939000   642.000000     0.001558   696.289371     0.000000 
  95.947000   609.000000     0.001642   686.293455     0.000000 
  95.955000   598.000000     0.001672   677.857938     0.000000 
  95.963000   581.000000     0.001721   670.919300     0.000000 
  95.971000   564.000000     0.001773   665.375864     0.000000 
  95.979000   577.000000     0.001733   661.087750     0.000000 
  95.987000   608.000000     0.001645   657.876141     0.000000 
  95.995000   636.000000     0.001572   655.523029     0.000000 
  96.003000   635.000000     0.001575   653.773168     0.000000 
  96.011000   642.000000     0.001558   652.340170     0.000000 
  96.019000   664.000000     0.001506   650.918658     0.000000 
  96.027000   675.000000     0.001481   649.203351     0.000000 
  96.035000   734.000000     0.001362   646.914059     0.000000 
  96.043000   746.000000     0.001340   643.823010     0.000000 
  96.051000   791.000000     0.001264   639.778798     0.000000 
  96.059000   802.000000     0.001247   634.720814     0.000000 
  96.067000   785.000000     0.001274   628.680118     0.000000 
  96.075000   757.000000     0.001321   621.766571     0.000000 
  96.083000   688.000000     0.001453   614.146052     0.000000 
  96.091000   657.000000     0.001522   606.013857     0.000000 
  96.099000   631.000000     0.001585   597.570169     0.000000 
  96.107000   623.000000     0.001605   589.001467     0.000000 
  96.115000   575.000000     0.001739   580.469161     0.000000 
  96.123000   551.000000     0.001815   572.104748     0.000000 
  96.131000   540.000000     0.001852   564.009727     0.000000 
  96.139000   522.000000     0.001916   556.258367     0.000000 
  96.147000   516.000000     0.001938   548.901746     0.000000 
  96.155000   542.000000     0.001845   541.972030     0.000000 
  96.163000   536.000000     0.001866   535.486381     0.000000 
  96.171000   531.000000     0.001883   529.450281     0.000000 
  96.179000   508.000000     0.001969   523.860211     0.000000 
  96.187000   465.000000     0.002151   518.705791     0.000000 
  96.195000   476.000000     0.002101   513.971454     0.000000 
  96.203000   515.000000     0.001942   509.637793     0.000000 
  96.211000   488.000000     0.002049   505.682651     0.000000 
  96.219000   500.000000     0.002000   502.082029     0.000000 
  96.227000   519.000000     0.001927   498.810846     0.000000 
  96.235000   502.000000     0.001992   495.843593     0.000000 
  96.243000   462.000000     0.002165   493.154881     0.000000 
  96.251000   514.000000     0.001946   490.719901     0.000000 
  96.259000   501.000000     0.001996   488.514796     0.000000 
  96.267000   441.000000     0.002268   486.516957     0.000000 
  96.275000   467.000000     0.002141   484.705231     0.000000 
  96.283000   493.000000     0.002028   483.060067     0.000000 
  96.291000   495.000000     0.002020   481.563590     0.000000 
  96.299000   492.000000     0.002033   480.199624     0.000000 
  96.307000   512.000000     0.001953   478.953659     0.000000 
  96.315000   478.000000     0.002092   477.812794     0.000000 
  96.323000   446.000000     0.002242   476.765638     0.000000 
  96.331000   469.000000     0.002132   475.802200     0.000000 
  96.339000   458.000000     0.002183   474.913766     0.000000 
  96.347000   468.000000     0.002137   474.092768     0.000000 
  96.355000   480.000000     0.002083   473.332657     0.000000 
  96.363000   492.000000     0.002033   472.626634     0.000000 
  96.371000   467.000000     0.002141   471.972138     0.000000 
  96.379000   455.000000     0.002198   471.363820     0.000000 
  96.387000   484.000000     0.002066   470.798072     0.000000 
  96.395000   463.000000     0.002160   470.271785     0.000000 
  96.403000   476.000000     0.002101   469.782282     0.000000 
  96.411000   464.000000     0.002155   469.327250     0.000000 
  96.419000   496.000000     0.002016   468.904695     0.000000 
  96.427000   467.000000     0.002141   468.512897     0.000000 
  96.435000   457.000000     0.002188   468.150373     0.000000 
  96.443000   452.000000     0.002212   467.815852     0.000000 
  96.451000   458.000000     0.002183   467.508250     0.000000 
  96.459000   405.000000     0.002469   467.226656     0.000000 
  96.467000   420.000000     0.002381   466.970316     0.000000 
  96.475000   440.000000     0.002273   466.738626     0.000000 
  96.483000   457.000000     0.002188   466.531125     0.000000 
  96.491000   492.000000     0.002033   466.347499     0.000000 
  96.499000   467.000000     0.002141   466.187574     0.000000 
  96.507000   473.000000     0.002114   466.051331     0.000000 
  96.515000   456.000000     0.002193   465.938907     0.000000 
  96.523000   434.000000     0.002304   465.850616     0.000000 
  96.531000   453.000000     0.002208   465.786960     0.000000 
  96.539000   444.000000     0.002252   465.748659     0.000000 
  96.547000   416.000000     0.002404   465.736672     0.000000 
  96.555000   440.000000     0.002273   465.752237     0.000000 
  96.563000   458.000000     0.002183   465.796911     0.000000 
  96.571000   433.000000     0.002309   465.872616     0.000000 
  96.579000   461.000000     0.002169   465.981693     0.000000 
  96.587000   467.000000     0.002141   466.126962     0.000000 
  96.595000   448.000000     0.002232   466.311789     0.000000 
  96.603000   461.000000     0.002169   466.540155     0.000000 
  96.611000   415.000000     0.002410   466.816726     0.000000 
  96.619000   421.000000     0.002375   467.146928     0.000000 
  96.627000   472.000000     0.002119   467.537009     0.000000 
  96.635000   460.000000     0.002174   467.994107     0.000000 
  96.643000   447.000000     0.002237   468.526290     0.000000 
  96.651000   414.000000     0.002415   469.142587     0.000000 
  96.659000   477.000000     0.002096   469.852997     0.000000 
  96.667000   458.000000     0.002183   470.668465     0.000000 
  96.675000   450.000000     0.002222   471.600823     0.000000 
  96.683000   464.000000     0.002155   472.662694     0.000000 
  96.691000   471.000000     0.002123   473.867351     0.000000 
  96.699000   437.000000     0.002288   475.228525     0.000000 
  96.707000   433.000000     0.002309   476.760171     0.000000 
  96.715000   451.000000     0.002217   478.476166     0.000000 
  96.723000   457.000000     0.002188   480.389966     0.000000 
  96.731000   485.000000     0.002062   482.514192     0.000000 
  96.739000   493.000000     0.002028   484.860148     0.000000 
  96.747000   478.000000     0.002092   487.437258     0.000000 
  96.755000   466.000000     0.002146   490.252400     0.000000 
  96.763000   495.000000     0.002020   493.309091     0.000000 
  96.771000   476.000000     0.002101   496.606497     0.000000 
  96.779000   499.000000     0.002004   500.138192     0.000000 
  96.787000   531.000000     0.001883   503.890617     0.000000 
  96.795000   518.000000     0.001931   507.841172     0.000000 
  96.803000   474.000000     0.002110   511.955940     0.000000 
  96.811000   431.000000     0.002320   516.187111     0.000000 
  96.819000   485.000000     0.002062   520.470333     0.000000 
  96.827000   498.000000     0.002008   524.722430     0.000000 
  96.835000   506.000000     0.001976   528.840243     0.000000 
  96.843000   543.000000     0.001842   532.701533     0.000000 
  96.851000   510.000000     0.001961   536.169071     0.000000 
  96.859000   522.000000     0.001916   539.098693     0.000000 
  96.867000   554.000000     0.001805   541.351367     0.000000 
  96.875000   565.000000     0.001770   542.808076     0.000000 
  96.883000   607.000000     0.001647   543.384908     0.000000 
  96.891000   636.000000     0.001572   543.044950     0.000000 
  96.899000   639.000000     0.001565   541.803824     0.000000 
  96.907000   585.000000     0.001709   539.727310     0.000000 
  96.915000   552.000000     0.001812   536.921730     0.000000 
  96.923000   526.000000     0.001901   533.519725     0.000000 
  96.931000   518.000000     0.001931   529.664916     0.000000 
  96.939000   507.000000     0.001972   525.498454     0.000000 
  96.947000   505.000000     0.001980   521.149279     0.000000 
  96.955000   494.000000     0.002024   516.728471     0.000000 
  96.963000   487.000000     0.002053   512.327184     0.000000 
  96.971000   477.000000     0.002096   508.017086     0.000000 
  96.979000   485.000000     0.002062   504.115077     0.000000 
  96.987000   471.000000     0.002123   500.135907     0.000000 
  96.995000   470.000000     0.002128   496.367960     0.000000 
  97.003000   453.000000     0.002208   492.828097     0.000000 
  97.011000   475.000000     0.002105   489.525305     0.000000 
  97.019000   484.000000     0.002066   486.462390     0.000000 
  97.027000   458.000000     0.002183   483.637328     0.000000 
  97.035000   447.000000     0.002237   481.044353     0.000000 
  97.043000   463.000000     0.002160   478.674835     0.000000 
  97.051000   471.000000     0.002123   476.518000     0.000000 
  97.059000   471.000000     0.002123   474.561533     0.000000 
  97.067000   486.000000     0.002058   472.792091     0.000000 
  97.075000   501.000000     0.001996   471.195740     0.000000 
  97.083000   495.000000     0.002020   469.758330     0.000000 
  97.091000   477.000000     0.002096   468.465810     0.000000 
  97.099000   452.000000     0.002212   467.304486     0.000000 
  97.107000   423.000000     0.002364   466.261235     0.000000 
  97.115000   449.000000     0.002227   465.323663     0.000000 
  97.123000   473.000000     0.002114   464.480217     0.000000 
  97.131000   456.000000     0.002193   463.720259     0.000000 
  97.139000   452.000000     0.002212   463.034100     0.000000 
  97.147000   481.000000     0.002079   462.413008     0.000000 
  97.155000   480.000000     0.002083   461.849181     0.000000 
  97.163000   433.000000     0.002309   461.335707     0.000000 
  97.171000   448.000000     0.002232   460.866509     0.000000 
  97.179000   468.000000     0.002137   460.436277     0.000000 
  97.187000   452.000000     0.002212   460.040397     0.000000 
  97.195000   418.000000     0.002392   459.674877     0.000000 
  97.203000   435.000000     0.002299   459.336273     0.000000 
  97.211000   404.000000     0.002475   459.021625     0.000000 
  97.219000   476.000000     0.002101   458.728385     0.000000 
  97.227000   495.000000     0.002020   458.454364     0.000000 
  97.235000   435.000000     0.002299   458.197676     0.000000 
  97.243000   425.000000     0.002353   457.956694     0.000000 
  97.251000   416.000000     0.002404   457.730008     0.000000 
  97.259000   420.000000     0.002381   457.516392     0.000000 
  97.267000   447.000000     0.002237   457.314773     0.000000 
  97.275000   460.000000     0.002174   457.124211     0.000000 
  97.283000   476.000000     0.002101   456.943872     0.000000 
  97.291000   462.000000     0.002165   456.773016     0.000000 
  97.299000   453.000000     0.002208   456.610981     0.000000 
  97.307000   457.000000     0.002188   456.457173     0.000000 
  97.315000   461.000000     0.002169   456.311055     0.000000 
  97.323000   478.000000     0.002092   456.172140     0.000000 
  97.331000   465.000000     0.002151   456.039987     0.000000 
  97.339000   436.000000     0.002294   455.914189     0.000000 
  97.347000   433.000000     0.002309   455.794377     0.000000 
  97.355000   441.000000     0.002268   455.680210     0.000000 
  97.363000   445.000000     0.002247   455.571375     0.000000 
  97.371000   457.000000     0.002188   455.467583     0.000000 
  97.379000   435.000000     0.002299   455.368568     0.000000 
  97.387000   443.000000     0.002257   455.274083     0.000000 
  97.395000   445.000000     0.002247   455.183899     0.000000 
  97.403000   433.000000     0.002309   455.097806     0.000000 
  97.411000   487.000000     0.002053   455.015608     0.000000 
  97.419000   490.000000     0.002041   454.937123     0.000000 
  97.427000   410.000000     0.002439   454.862183     0.000000 
  97.435000   444.000000     0.002252   454.790631     0.000000 
  97.443000   464.000000     0.002155   454.722322     0.000000 
  97.451000   482.000000     0.002075   454.657122     0.000000 
  97.459000   480.000000     0.002083   454.594905     0.000000 
  97.467000   453.000000     0.002208   454.535557     0.000000 
  97.475000   427.000000     0.002342   454.478969     0.000000 
  97.483000   422.000000     0.002370   454.425043     0.000000 
  97.491000   432.000000     0.002315   454.373685     0.000000 
  97.499000   434.000000     0.002304   454.324813     0.000000 
  97.507000   448.000000     0.002232   454.278346     0.000000 
  97.515000   477.000000     0.002096   454.234214     0.000000 
  97.523000   466.000000     0.002146   454.192349     0.000000 
  97.531000   480.000000     0.002083   454.152692     0.000000 
  97.539000   456.000000     0.002193   454.115188     0.000000 
  97.547000   423.000000     0.002364   454.079786     0.000000 
  97.555000   413.000000     0.002421   454.046442     0.000000 
  97.563000   483.000000     0.002070   454.015116     0.000000 
  97.571000   466.000000     0.002146   453.985772     0.000000 
  97.579000   486.000000     0.002058   453.958378     0.000000 
  97.587000   463.000000     0.002160   453.932910     0.000000 
  97.595000   437.000000     0.002288   453.909343     0.000000 
  97.603000   450.000000     0.002222   453.887660     0.000000 
  97.611000   497.000000     0.002012   453.867848     0.000000 
  97.619000   466.000000     0.002146   453.849896     0.000000 
  97.627000   471.000000     0.002123   453.833799     0.000000 
  97.635000   440.000000     0.002273   453.819556     0.000000 
  97.643000   450.000000     0.002222   453.807169     0.000000 
  97.651000   462.000000     0.002165   453.796647     0.000000 
  97.659000   481.000000     0.002079   453.788000     0.000000 
  97.667000   464.000000     0.002155   453.781245     0.000000 
  97.675000   436.000000     0.002294   453.776403     0.000000 
  97.683000   418.000000     0.002392   453.773499     0.000000 
  97.691000   425.000000     0.002353   453.772564     0.000000 
  97.699000   452.000000     0.002212   453.773634     0.000000 
  97.707000   423.000000     0.002364   453.776750     0.000000 
  97.715000   385.000000     0.002597   453.845960     0.000000 
  97.723000   438.000000     0.002283   453.853600     0.000000 
  97.731000   477.000000     0.002096   453.863447     0.000000 
  97.739000   436.000000     0.002294   453.875568     0.000000 
  97.747000   412.000000     0.002427   454.115947     0.000000 
  97.755000   449.000000     0.002227   454.133848     0.000000 
  97.763000   428.000000     0.002336   454.154275     0.000000 
  97.771000   471.000000     0.002123   454.177327     0.000000 
  97.779000   410.000000     0.002439   454.203114     0.000000 
  97.787000   433.000000     0.002309   454.231758     0.000000 
  97.795000   426.000000     0.002347   454.263389     0.000000 
  97.803000   441.000000     0.002268   454.298155     0.000000 
  97.811000   475.000000     0.002105   454.336216     0.000000 
  97.819000   440.000000     0.002273   454.377751     0.000000 
  97.827000   435.000000     0.002299   454.422958     0.000000 
  97.835000   447.000000     0.002237   454.472055     0.000000 
  97.843000   432.000000     0.002315   454.525287     0.000000 
  97.851000   429.000000     0.002331   454.582929     0.000000 
  97.859000   435.000000     0.002299   454.645288     0.000000 
  97.867000   429.000000     0.002331   454.712713     0.000000 
  97.875000   428.000000     0.002336   454.785600     0.000000 
  97.883000   447.000000     0.002237   454.864399     0.000000 
  97.891000   440.000000     0.002273   454.949628     0.000000 
  97.899000   425.000000     0.002353   455.041882     0.000000 
  97.907000   430.000000     0.002326   455.141847     0.000000 
  97.915000   476.000000     0.002101   455.250320     0.000000 
  97.923000   463.000000     0.002160   455.368221     0.000000 
  97.931000   445.000000     0.002247   455.496621     0.000000 
  97.939000   444.000000     0.002252   455.636760     0.000000 
  97.947000   445.000000     0.002247   455.790077     0.000000 
  97.955000   455.000000     0.002198   455.958235     0.000000 
  97.963000   481.000000     0.002079   456.143147     0.000000 
  97.971000   437.000000     0.002288   456.347012     0.000000 
  97.979000   468.000000     0.002137   456.572337     0.000000 
  97.987000   436.000000     0.002294   456.821965     0.000000 
  97.995000   426.000000     0.002347   457.099102     0.000000 
  98.003000   444.000000     0.002252   457.407329     0.000000 
  98.011000   450.000000     0.002222   457.750618     0.000000 
  98.019000   453.000000     0.002208   458.133328     0.000000 
  98.027000   444.000000     0.002252   458.560201     0.000000 
  98.035000   468.000000     0.002137   459.036332     0.000000 
  98.043000   475.000000     0.002105   459.567135     0.000000 
  98.051000   442.000000     0.002262   460.158286     0.000000 
  98.059000   435.000000     0.002299   460.815648     0.000000 
  98.067000   465.000000     0.002151   461.545176     0.000000 
  98.075000   479.000000     0.002088   462.352809     0.000000 
  98.083000   460.000000     0.002174   463.244329     0.000000 
  98.091000   465.000000     0.002151   464.225210     0.000000 
  98.099000   449.000000     0.002227   465.300433     0.000000 
  98.107000   461.000000     0.002169   466.474280     0.000000 
  98.115000   470.000000     0.002128   467.750092     0.000000 
  98.123000   442.000000     0.002262   469.129983     0.000000 
  98.131000   449.000000     0.002227   470.614494     0.000000 
  98.139000   469.000000     0.002132   472.202181     0.000000 
  98.147000   436.000000     0.002294   473.889097     0.000000 
  98.155000   455.000000     0.002198   475.668161     0.000000 
  98.163000   463.000000     0.002160   477.528398     0.000000 
  98.171000   504.000000     0.001984   479.454042     0.000000 
  98.179000   474.000000     0.002110   481.423550     0.000000 
  98.187000   497.000000     0.002012   483.408625     0.000000 
  98.195000   508.000000     0.001969   485.373405     0.000000 
  98.203000   487.000000     0.002053   487.274117     0.000000 
  98.211000   504.000000     0.001984   489.059519     0.000000 
  98.219000   491.000000     0.002037   490.672533     0.000000 
  98.227000   487.000000     0.002053   492.053328     0.000000 
  98.235000   500.000000     0.002000   493.143880     0.000000 
  98.243000   481.000000     0.002079   493.893594     0.000000 
  98.251000   493.000000     0.002028   494.265118     0.000000 
  98.259000   506.000000     0.001976   494.239150     0.000000 
  98.267000   508.000000     0.001969   493.817100     0.000000 
  98.275000   497.000000     0.002012   493.020886     0.000000 
  98.283000   494.000000     0.002024   491.889948     0.000000 
  98.291000   509.000000     0.001965   490.476234     0.000000 
  98.299000   511.000000     0.001957   488.838342     0.000000 
  98.307000   488.000000     0.002049   487.036000     0.000000 
  98.315000   510.000000     0.001961   485.125685     0.000000 
  98.323000   492.000000     0.002033   483.157736     0.000000 
  98.331000   498.000000     0.002008   481.174897     0.000000 
  98.339000   454.000000     0.002203   479.211998     0.000000 
  98.347000   479.000000     0.002088   477.296379     0.000000 
  98.355000   498.000000     0.002008   475.448735     0.000000 
  98.363000   470.000000     0.002128   473.684094     0.000000 
  98.371000   443.000000     0.002257   472.012802     0.000000 
  98.379000   466.000000     0.002146   470.441386     0.000000 
  98.387000   459.000000     0.002179   468.973307     0.000000 
  98.395000   460.000000     0.002174   467.609565     0.000000 
  98.403000   427.000000     0.002342   466.349205     0.000000 
  98.411000   426.000000     0.002347   465.189729     0.000000 
  98.419000   447.000000     0.002237   464.127437     0.000000 
  98.427000   453.000000     0.002208   463.157727     0.000000 
  98.435000   445.000000     0.002247   462.275350     0.000000 
  98.443000   452.000000     0.002212   461.474635     0.000000 
  98.451000   472.000000     0.002119   460.749687     0.000000 
  98.459000   464.000000     0.002155   460.094548     0.000000 
  98.467000   436.000000     0.002294   459.503333     0.000000 
  98.475000   456.000000     0.002193   458.970330     0.000000 
  98.483000   462.000000     0.002165   458.490075     0.000000 
  98.491000   444.000000     0.002252   458.057399     0.000000 
  98.499000   402.000000     0.002488   457.667466     0.000000 
  98.507000   443.000000     0.002257   457.315791     0.000000 
  98.515000   435.000000     0.002299   456.998248     0.000000 
  98.523000   467.000000     0.002141   456.711076     0.000000 
  98.531000   453.000000     0.002208   456.450871     0.000000 
  98.539000   431.000000     0.002320   456.214580     0.000000 
  98.547000   441.000000     0.002268   455.999478     0.000000 
  98.555000   471.000000     0.002123   455.803156     0.000000 
  98.563000   467.000000     0.002141   455.623490     0.000000 
  98.571000   438.000000     0.002283   455.458623     0.000000 
  98.579000   487.000000     0.002053   455.306933     0.000000 
  98.587000   506.000000     0.001976   455.167008     0.000000 
  98.595000   499.000000     0.002004   455.037624     0.000000 
  98.603000   484.000000     0.002066   454.917718     0.000000 
  98.611000   472.000000     0.002119   454.806367     0.000000 
  98.619000   441.000000     0.002268   454.702768     0.000000 
  98.627000   420.000000     0.002381   454.606222     0.000000 
  98.635000   465.000000     0.002151   454.516116     0.000000 
  98.643000   456.000000     0.002193   454.431913     0.000000 
  98.651000   409.000000     0.002445   454.353140     0.000000 
  98.659000   426.000000     0.002347   454.279375     0.000000 
  98.667000   458.000000     0.002183   454.210246     0.000000 
  98.675000   435.000000     0.002299   454.145418     0.000000 
  98.683000   427.000000     0.002342   454.084591     0.000000 
  98.691000   443.000000     0.002257   454.027493     0.000000 
  98.699000   444.000000     0.002252   453.973880     0.000000 
  98.707000   491.000000     0.002037   453.923528     0.000000 
  98.715000   497.000000     0.002012   453.876234     0.000000 
  98.723000   451.000000     0.002217   453.831814     0.000000 
  98.731000   447.000000     0.002237   453.790098     0.000000 
  98.739000   496.000000     0.002016   453.750929     0.000000 
  98.747000   439.000000     0.002278   453.714165     0.000000 
  98.755000   421.000000     0.002375   453.679674     0.000000 
  98.763000   460.000000     0.002174   453.647334     0.000000 
  98.771000   466.000000     0.002146   453.617034     0.000000 
  98.779000   462.000000     0.002165   453.588670     0.000000 
  98.787000   452.000000     0.002212   453.562147     0.000000 
  98.795000   432.000000     0.002315   453.537375     0.000000 
  98.803000   438.000000     0.002283   453.514273     0.000000 
  98.811000   440.000000     0.002273   453.492764     0.000000 
  98.819000   412.000000     0.002427   453.472777     0.000000 
  98.827000   433.000000     0.002309   453.454247     0.000000 
  98.835000   452.000000     0.002212   453.437112     0.000000 
  98.843000   436.000000     0.002294   453.421315     0.000000 
  98.851000   471.000000     0.002123   453.406803     0.000000 
  98.859000   444.000000     0.002252   453.393526     0.000000 
  98.867000   450.000000     0.002222   453.381439     0.000000 
  98.875000   458.000000     0.002183   453.370498     0.000000 
  98.883000   455.000000     0.002198   453.360662     0.000000 
  98.891000   444.000000     0.002252   453.351896     0.000000 
  98.899000   461.000000     0.002169   453.344162     0.000000 
  98.907000   385.000000     0.002597   453.337430     0.000000 
  98.915000   374.000000     0.002674   453.331668     0.000000 
  98.923000   394.000000     0.002538   452.986368     0.000000 
  98.931000   456.000000     0.002193   452.984211     0.000000 
  98.939000   428.000000     0.002336   452.982931     0.000000 
  98.947000   433.000000     0.002309   452.982506     0.000000 
  98.955000   456.000000     0.002193   452.982913     0.000000 
  98.963000   439.000000     0.002278   452.984134     0.000000 
  98.971000   419.000000     0.002387   452.986149     0.000000 
  98.979000   456.000000     0.002193   452.988943     0.000000 
  98.987000   450.000000     0.002222   452.992498     0.000000 
  98.995000   419.000000     0.002387   452.996801     0.000000 
  99.003000   425.000000     0.002353   453.001838     0.000000 
  99.011000   446.000000     0.002242   453.007597     0.000000 
  99.019000   460.000000     0.002174   453.014066     0.000000 
  99.027000   449.000000     0.002227   453.021235     0.000000 
  99.035000   446.000000     0.002242   453.029094     0.000000 
  99.043000   445.000000     0.002247   453.037636     0.000000 
  99.051000   422.000000     0.002370   453.046852     0.000000 
  99.059000   436.000000     0.002294   453.056736     0.000000 
  99.067000   420.000000     0.002381   453.067281     0.000000 
  99.075000   446.000000     0.002242   453.078483     0.000000 
  99.083000   468.000000     0.002137   453.090336     0.000000 
  99.091000   479.000000     0.002088   453.102838     0.000000 
  99.099000   467.000000     0.002141   453.115984     0.000000 
  99.107000   487.000000     0.002053   453.129773     0.000000 
  99.115000   466.000000     0.002146   453.144202     0.000000 
  99.123000   424.000000     0.002358   453.159270     0.000000 
  99.131000   490.000000     0.002041   453.174978     0.000000 
  99.139000   448.000000     0.002232   453.191324     0.000000 
  99.147000   477.000000     0.002096   453.208310     0.000000 
  99.155000   443.000000     0.002257   453.225937     0.000000 
  99.163000   433.000000     0.002309   453.244207     0.000000 
  99.171000   431.000000     0.002320   453.157689     0.000000 
  99.179000   409.000000     0.002445   453.177789     0.000000 
  99.187000   431.000000     0.002320   453.198536     0.000000 
  99.195000   458.000000     0.002183   453.219935     0.000000 
  99.203000   423.000000     0.002364   453.241989     0.000000 
  99.211000   418.000000     0.002392   453.264705     0.000000 
  99.219000   451.000000     0.002217   453.288088     0.000000 
  99.227000   440.000000     0.002273   453.312144     0.000000 
  99.235000   443.000000     0.002257   453.336881     0.000000 
  99.243000   476.000000     0.002101   453.362304     0.000000 
  99.251000   465.000000     0.002151   453.388424     0.000000 
  99.259000   481.000000     0.002079   453.415247     0.000000 
  99.267000   427.000000     0.002342   453.442783     0.000000 
  99.275000   436.000000     0.002294   453.471042     0.000000 
  99.283000   527.000000     0.001898   453.500034     0.000000 
  99.291000   474.000000     0.002110   453.529769     0.000000 
  99.299000   408.000000     0.002451   453.560260     0.000000 
  99.307000   423.000000     0.002364   453.591518     0.000000 
  99.315000   455.000000     0.002198   453.623556     0.000000 
  99.323000   419.000000     0.002387   453.656386     0.000000 
  99.331000   437.000000     0.002288   453.690025     0.000000 
  99.339000   434.000000     0.002304   453.724484     0.000000 
  99.347000   440.000000     0.002273   453.759782     0.000000 
  99.355000   415.000000     0.002410   453.795932     0.000000 
  99.363000   426.000000     0.002347   453.832952     0.000000 
  99.371000   466.000000     0.002146   453.870859     0.000000 
  99.379000   448.000000     0.002232   453.909672     0.000000 
  99.387000   419.000000     0.002387   453.949410     0.000000 
  99.395000   447.000000     0.002237   453.990093     0.000000 
  99.403000   483.000000     0.002070   454.031741     0.000000 
  99.411000   442.000000     0.002262   454.074376     0.000000 
  99.419000   431.000000     0.002320   454.118020     0.000000 
  99.427000   424.000000     0.002358   454.162697     0.000000 
  99.435000   437.000000     0.002288   454.208432     0.000000 
  99.443000   435.000000     0.002299   454.255250     0.000000 
  99.451000   463.000000     0.002160   454.303177     0.000000 
  99.459000   498.000000     0.002008   454.352241     0.000000 
  99.467000   451.000000     0.002217   454.402470     0.000000 
  99.475000   439.000000     0.002278   454.453895     0.000000 
  99.483000   432.000000     0.002315   454.506547     0.000000 
  99.491000   451.000000     0.002217   454.560457     0.000000 
  99.499000   451.000000     0.002217   454.615660     0.000000 
  99.507000   425.000000     0.002353   454.672191     0.000000 
  99.515000   483.000000     0.002070   454.730086     0.000000 
  99.523000   448.000000     0.002232   454.789384     0.000000 
  99.531000   449.000000     0.002227   454.850124     0.000000 
  99.539000   449.000000     0.002227   454.912346     0.000000 
  99.547000   440.000000     0.002273   454.976096     0.000000 
  99.555000   442.000000     0.002262   455.041416     0.000000 
  99.563000   470.000000     0.002128   455.108353     0.000000 
  99.571000   461.000000     0.002169   455.176957     0.000000 
  99.579000   431.000000     0.002320   455.247278     0.000000 
  99.587000   450.000000     0.002222   455.319369     0.000000 
  99.595000   416.000000     0.002404   455.393285     0.000000 
  99.603000   438.000000     0.002283   455.469084     0.000000 
  99.611000   432.000000     0.002315   455.546825     0.000000 
  99.619000   458.000000     0.002183   455.626571     0.000000 
  99.627000   436.000000     0.002294   455.708388     0.000000 
  99.635000   416.000000     0.002404   455.792343     0.000000 
  99.643000   440.000000     0.002273   455.878509     0.000000 
  99.651000   480.000000     0.002083   455.966959     0.000000 
  99.659000   507.000000     0.001972   456.057773     0.000000 
  99.667000   457.000000     0.002188   456.151030     0.000000 
  99.675000   436.000000     0.002294   456.246817     0.000000 
  99.683000   462.000000     0.002165   456.345222     0.000000 
  99.691000   456.000000     0.002193   456.446339     0.000000 
  99.699000   449.000000     0.002227   456.550266     0.000000 
  99.707000   422.000000     0.002370   456.657105     0.000000 
  99.715000   435.000000     0.002299   456.766963     0.000000 
  99.723000   446.000000     0.002242   456.879953     0.000000 
  99.731000   425.000000     0.002353   457.035226     0.000000 
  99.739000   405.000000     0.002469   457.155003     0.000000 
  99.747000   441.000000     0.002268   457.278284     0.000000 
  99.755000   457.000000     0.002188   457.405206     0.000000 
  99.763000   448.000000     0.002232   457.535912     0.000000 
  99.771000   446.000000     0.002242   457.670554     0.000000 
  99.779000   464.000000     0.002155   457.809288     0.000000 
  99.787000   448.000000     0.002232   457.952283     0.000000 
  99.795000   413.000000     0.002421   458.099714     0.000000 
  99.803000   410.000000     0.002439   458.251765     0.000000 
  99.811000   396.000000     0.002525   458.408631     0.000000 
  99.819000   434.000000     0.002304   458.570517     0.000000 
  99.827000   462.000000     0.002165   458.737641     0.000000 
  99.835000   461.000000     0.002169   458.910229     0.000000 
  99.843000   488.000000     0.002049   459.088525     0.000000 
  99.851000   458.000000     0.002183   459.272782     0.000000 
  99.859000   492.000000     0.002033   459.463270     0.000000 
  99.867000   461.000000     0.002169   459.660274     0.000000 
  99.875000   431.000000     0.002320   459.864095     0.000000 
  99.883000   458.000000     0.002183   460.075054     0.000000 
  99.891000   473.000000     0.002114   460.293489     0.000000 
  99.899000   453.000000     0.002208   460.519759     0.000000 
  99.907000   436.000000     0.002294   460.754245     0.000000 
  99.915000   455.000000     0.002198   460.997352     0.000000 
  99.923000   471.000000     0.002123   461.249509     0.000000 
  99.931000   499.000000     0.002004   461.511174     0.000000 
  99.939000   477.000000     0.002096   461.782833     0.000000 
  99.947000   455.000000     0.002198   462.065004     0.000000 
  99.955000   438.000000     0.002283   462.358241     0.000000 
  99.963000   430.000000     0.002326   462.663132     0.000000 
  99.971000   443.000000     0.002257   462.980307     0.000000 
  99.979000   455.000000     0.002198   463.310440     0.000000 
  99.987000   460.000000     0.002174   463.654252     0.000000 
  99.995000   429.000000     0.002331   464.012515     0.000000 
 100.003000   467.000000     0.002141   464.386058     0.000000 
 100.011000   483.000000     0.002070   464.775775     0.000000 
 100.019000   478.000000     0.002092   465.182627     0.000000 
 100.027000   481.000000     0.002079   465.607653     0.000000 
 100.035000   450.000000     0.002222   466.051976     0.000000 
 100.043000   486.000000     0.002058   466.516819     0.000000 
 100.051000   480.000000     0.002083   467.003511     0.000000 
 100.059000   487.000000     0.002053   467.513506     0.000000 
 100.067000   493.000000     0.002028   468.048401     0.000000 
 100.075000   467.000000     0.002141   468.609955     0.000000 
 100.083000   469.000000     0.002132   469.130323     0.000000 
 100.091000   440.000000     0.002273   469.751611     0.000000 
 100.099000   410.000000     0.002439   470.406100     0.000000 
 100.107000   447.000000     0.002237   471.096519     0.000000 
 100.115000   451.000000     0.002217   471.825946     0.000000 
 100.123000   469.000000     0.002132   472.597879     0.000000 
 100.131000   501.000000     0.001996   473.416300     0.000000 
 100.139000   510.000000     0.001961   474.285762     0.000000 
 100.147000   524.000000     0.001908   475.211488     0.000000 
 100.155000   471.000000     0.002123   476.213501     0.000000 
 100.163000   475.000000     0.002105   477.270710     0.000000 
 100.171000   489.000000     0.002045   478.405023     0.000000 
 100.179000   465.000000     0.002151   479.625569     0.000000 
 100.187000   492.000000     0.002033   480.942828     0.000000 
 100.195000   452.000000     0.002212   482.368806     0.000000 
 100.203000   450.000000     0.002222   483.917206     0.000000 
 100.211000   455.000000     0.002198   485.603608     0.000000 
 100.219000   450.000000     0.002222   487.445638     0.000000 
 100.227000   476.000000     0.002101   489.463130     0.000000 
 100.235000   476.000000     0.002101   491.678257     0.000000 
 100.243000   453.000000     0.002208   494.115640     0.000000 
 100.251000   491.000000     0.002037   496.802407     0.000000 
 100.259000   498.000000     0.002008   499.768198     0.000000 
 100.267000   488.000000     0.002049   503.045114     0.000000 
 100.275000   462.000000     0.002165   506.667574     0.000000 
 100.283000   489.000000     0.002045   510.672094     0.000000 
 100.291000   531.000000     0.001883   515.096971     0.000000 
 100.299000   516.000000     0.001938   519.981858     0.000000 
 100.307000   503.000000     0.001988   525.367227     0.000000 
 100.315000   524.000000     0.001908   531.293727     0.000000 
 100.323000   539.000000     0.001855   537.801423     0.000000 
 100.331000   563.000000     0.001776   544.928906     0.000000 
 100.339000   576.000000     0.001736   552.712298     0.000000 
 100.347000   555.000000     0.001802   561.184105     0.000000 
 100.355000   535.000000     0.001869   570.371935     0.000000 
 100.363000   540.000000     0.001852   580.297030     0.000000 
 100.371000   636.000000     0.001572   590.972570     0.000000 
 100.379000   590.000000     0.001695   602.401703     0.000000 
 100.387000   588.000000     0.001701   614.575183     0.000000 
 100.395000   647.000000     0.001546   627.468549     0.000000 
 100.403000   601.000000     0.001664   641.038708     0.000000 
 100.411000   669.000000     0.001495   655.219845     0.000000 
 100.419000   654.000000     0.001529   669.918648     0.000000 
 100.427000   686.000000     0.001458   685.008919     0.000000 
 100.435000   713.000000     0.001403   700.325932     0.000000 
 100.443000   753.000000     0.001328   715.661156     0.000000 
 100.451000   772.000000     0.001295   730.758442     0.000000 
 100.459000   790.000000     0.001266   745.313189     0.000000 
 100.467000   863.000000     0.001159   758.976362     0.000000 
 100.475000   937.000000     0.001067   771.365211     0.000000 
 100.483000   949.000000     0.001054   782.081996     0.000000 
 100.491000   951.000000     0.001052   790.740649     0.000000 
 100.499000  1012.000000     0.000988   796.999190     0.000000 
 100.507000  1047.000000     0.000955   800.593646     0.000000 
 100.515000  1054.000000     0.000949   801.367322     0.000000 
 100.523000  1085.000000     0.000922   799.289495     0.000000 
 100.531000  1046.000000     0.000956   794.459186     0.000000 
 100.539000  1018.000000     0.000982   787.093160     0.000000 
 100.547000   940.000000     0.001064   777.500932     0.000000 
 100.555000   908.000000     0.001101   766.052262     0.000000 
 100.563000   880.000000     0.001136   753.143355     0.000000 
 100.571000   821.000000     0.001218   739.167071     0.000000 
 100.579000   793.000000     0.001261   724.490363     0.000000 
 100.587000   756.000000     0.001323   709.439851     0.000000 
 100.595000   704.000000     0.001420   694.294886     0.000000 
 100.603000   670.000000     0.001493   679.286332     0.000000 
 100.611000   617.000000     0.001621   664.599189     0.000000 
 100.619000   617.000000     0.001621   650.377347     0.000000 
 100.627000   604.000000     0.001656   636.729168     0.000000 
 100.635000   578.000000     0.001730   623.733035     0.000000 
 100.643000   588.000000     0.001701   611.442458     0.000000 
 100.651000   575.000000     0.001739   599.890486     0.000000 
 100.659000   556.000000     0.001799   589.093435     0.000000 
 100.667000   529.000000     0.001890   579.053965     0.000000 
 100.675000   522.000000     0.001916   569.763664     0.000000 
 100.683000   535.000000     0.001869   561.205180     0.000000 
 100.691000   533.000000     0.001876   553.354042     0.000000 
 100.699000   532.000000     0.001880   546.180229     0.000000 
 100.707000   508.000000     0.001969   539.649539     0.000000 
 100.715000   487.000000     0.002053   533.724790     0.000000 
 100.723000   492.000000     0.002033   528.366897     0.000000 
 100.731000   540.000000     0.001852   523.535807     0.000000 
 100.739000   544.000000     0.001838   519.191321     0.000000 
 100.747000   516.000000     0.001938   515.293793     0.000000 
 100.755000   518.000000     0.001931   511.804726     0.000000 
 100.763000   512.000000     0.001953   508.687241     0.000000 
 100.771000   549.000000     0.001821   505.906450     0.000000 
 100.779000   506.000000     0.001976   503.944579     0.000000 
 100.787000   502.000000     0.001992   501.743821     0.000000 
 100.795000   512.000000     0.001953   499.789302     0.000000 
 100.803000   512.000000     0.001953   498.055931     0.000000 
 100.811000   509.000000     0.001965   496.521142     0.000000 
 100.819000   477.000000     0.002096   495.164818     0.000000 
 100.827000   470.000000     0.002128   493.969171     0.000000 
 100.835000   468.000000     0.002137   492.918599     0.000000 
 100.843000   473.000000     0.002114   491.999524     0.000000 
 100.851000   483.000000     0.002070   491.200231     0.000000 
 100.859000   477.000000     0.002096   490.510693     0.000000 
 100.867000   462.000000     0.002165   489.922414     0.000000 
 100.875000   452.000000     0.002212   489.428268     0.000000 
 100.883000   449.000000     0.002227   489.022364     0.000000 
 100.891000   450.000000     0.002222   488.699914     0.000000 
 100.899000   482.000000     0.002075   488.457128     0.000000 
 100.907000   479.000000     0.002088   488.291123     0.000000 
 100.915000   443.000000     0.002257   488.199847     0.000000 
 100.923000   456.000000     0.002193   488.182024     0.000000 
 100.931000   466.000000     0.002146   488.237123     0.000000 
 100.939000   480.000000     0.002083   488.365338     0.000000 
 100.947000   441.000000     0.002268   488.567589     0.000000 
 100.955000   451.000000     0.002217   488.845544     0.000000 
 100.963000   450.000000     0.002222   489.201653     0.000000 
 100.971000   439.000000     0.002278   489.639206     0.000000 
 100.979000   469.000000     0.002132   490.162406     0.000000 
 100.987000   482.000000     0.002075   490.776458     0.000000 
 100.995000   495.000000     0.002020   491.487673     0.000000 
 101.003000   482.000000     0.002075   492.303593     0.000000 
 101.011000   470.000000     0.002128   493.233123     0.000000 
 101.019000   467.000000     0.002141   494.286672     0.000000 
 101.027000   447.000000     0.002237   495.476314     0.000000 
 101.035000   452.000000     0.002212   496.815934     0.000000 
 101.043000   488.000000     0.002049   498.321389     0.000000 
 101.051000   479.000000     0.002088   500.010649     0.000000 
 101.059000   466.000000     0.002146   501.903935     0.000000 
 101.067000   459.000000     0.002179   504.023816     0.000000 
 101.075000   471.000000     0.002123   506.395294     0.000000 
 101.083000   481.000000     0.002079   509.045831     0.000000 
 101.091000   519.000000     0.001927   512.005331     0.000000 
 101.099000   484.000000     0.002066   515.306060     0.000000 
 101.107000   462.000000     0.002165   518.982485     0.000000 
 101.115000   452.000000     0.002212   523.071044     0.000000 
 101.123000   492.000000     0.002033   527.609817     0.000000 
 101.131000   482.000000     0.002075   532.638099     0.000000 
 101.139000   435.000000     0.002299   538.195875     0.000000 
 101.147000   491.000000     0.002037   544.323180     0.000000 
 101.155000   463.000000     0.002160   551.059343     0.000000 
 101.163000   517.000000     0.001934   558.442119     0.000000 
 101.171000   473.000000     0.002114   566.506682     0.000000 
 101.179000   473.000000     0.002114   575.284478     0.000000 
 101.187000   471.000000     0.002123   584.801916     0.000000 
 101.195000   484.000000     0.002066   595.078868     0.000000 
 101.203000   484.000000     0.002066   606.126943     0.000000 
 101.211000   462.000000     0.002165   617.947474     0.000000 
 101.219000   462.000000     0.002165   630.529188     0.000000 
 101.227000   476.000000     0.002101   643.845472     0.000000 
 101.235000   513.000000     0.001949   657.851237     0.000000 
 101.243000   520.000000     0.001923   672.479341     0.000000 
 101.251000   523.000000     0.001912   687.636701     0.000000 
 101.259000   543.000000     0.001842   703.200239     0.000000 
 101.267000   573.000000     0.001745   719.013045     0.000000 
 101.275000   609.000000     0.001642   734.881254     0.000000 
 101.283000   575.000000     0.001739   750.572356     0.000000 
 101.291000   613.000000     0.001631   765.815738     0.000000 
 101.299000   641.000000     0.001560   780.306310     0.000000 
 101.307000   694.000000     0.001441   793.711930     0.000000 
 101.315000   697.000000     0.001435   805.685094     0.000000 
 101.323000   763.000000     0.001311   815.878923     0.000000 
 101.331000   849.000000     0.001178   823.966951     0.000000 
 101.339000   924.000000     0.001082   829.665435     0.000000 
 101.347000   983.000000     0.001017   832.756125     0.000000 
 101.355000  1022.000000     0.000978   833.106601     0.000000 
 101.363000  1076.000000     0.000929   830.684792     0.000000 
 101.371000  1118.000000     0.000894   825.564683     0.000000 
 101.379000  1066.000000     0.000938   817.921499     0.000000 
 101.387000  1016.000000     0.000984   808.016650     0.000000 
 101.395000   983.000000     0.001017   796.174949     0.000000 
 101.403000   979.000000     0.001021   782.757974     0.000000 
 101.411000   918.000000     0.001089   768.137810     0.000000 
 101.419000   846.000000     0.001182   752.674638     0.000000 
 101.427000   839.000000     0.001192   736.700107     0.000000 
 101.435000   834.000000     0.001199   720.507056     0.000000 
 101.443000   837.000000     0.001195   704.344873     0.000000 
 101.451000   817.000000     0.001224   688.419208     0.000000 
 101.459000   769.000000     0.001300   672.894587     0.000000 
 101.467000   747.000000     0.001339   657.898650     0.000000 
 101.475000   699.000000     0.001431   643.527011     0.000000 
 101.483000   697.000000     0.001435   629.848102     0.000000 
 101.491000   664.000000     0.001506   616.907621     0.000000 
 101.499000   614.000000     0.001629   604.732458     0.000000 
 101.507000   584.000000     0.001712   593.334012     0.000000 
 101.515000   598.000000     0.001672   582.711014     0.000000 
 101.523000   582.000000     0.001718   572.851883     0.000000 
 101.531000   565.000000     0.001770   563.736715     0.000000 
 101.539000   548.000000     0.001825   555.338996     0.000000 
 101.547000   604.000000     0.001656   547.627070     0.000000 
 101.555000   563.000000     0.001776   540.565432     0.000000 
 101.563000   574.000000     0.001742   534.115862     0.000000 
 101.571000   608.000000     0.001645   528.238431     0.000000 
 101.579000   573.000000     0.001745   522.859748     0.000000 
 101.587000   536.000000     0.001866   518.004396     0.000000 
 101.595000   528.000000     0.001894   513.599350     0.000000 
 101.603000   519.000000     0.001927   509.605502     0.000000 
 101.611000   498.000000     0.002008   505.985323     0.000000 
 101.619000   477.000000     0.002096   502.703205     0.000000 
 101.627000   501.000000     0.001996   499.725715     0.000000 
 101.635000   506.000000     0.001976   497.021762     0.000000 
 101.643000   464.000000     0.002155   494.562687     0.000000 
 101.651000   461.000000     0.002169   492.322291     0.000000 
 101.659000   484.000000     0.002066   490.276805     0.000000 
 101.667000   524.000000     0.001908   488.404813     0.000000 
 101.675000   553.000000     0.001808   486.687142     0.000000 
 101.683000   509.000000     0.001965   485.106726     0.000000 
 101.691000   497.000000     0.002012   483.648451     0.000000 
 101.699000   446.000000     0.002242   482.298991     0.000000 
 101.707000   446.000000     0.002242   481.046641     0.000000 
 101.715000   527.000000     0.001898   479.881148     0.000000 
 101.723000   512.000000     0.001953   478.793552     0.000000 
 101.731000   423.000000     0.002364   477.776034     0.000000 
 101.739000   488.000000     0.002049   476.821775     0.000000 
 101.747000   556.000000     0.001799   475.924825     0.000000 
 101.755000   494.000000     0.002024   475.079986     0.000000 
 101.763000   542.000000     0.001845   474.282713     0.000000 
 101.771000   513.000000     0.001949   473.529016     0.000000 
 101.779000   474.000000     0.002110   472.815383     0.000000 
 101.787000   472.000000     0.002119   472.138590     0.000000 
 101.795000   475.000000     0.002105   471.496128     0.000000 
 101.803000   468.000000     0.002137   470.885421     0.000000 
 101.811000   489.000000     0.002045   470.304271     0.000000 
 101.819000   500.000000     0.002000   469.750700     0.000000 
 101.827000   467.000000     0.002141   469.222922     0.000000 
 101.835000   436.000000     0.002294   468.719311     0.000000 
 101.843000   465.000000     0.002151   468.238389     0.000000 
 101.851000   505.000000     0.001980   467.778799     0.000000 
 101.859000   479.000000     0.002088   467.339297     0.000000 
 101.867000   465.000000     0.002151   466.918735     0.000000 
 101.875000   474.000000     0.002110   466.516051     0.000000 
 101.883000   421.000000     0.002375   466.130264     0.000000 
 101.891000   469.000000     0.002132   465.760460     0.000000 
 101.899000   500.000000     0.002000   465.405789     0.000000 
 101.907000   461.000000     0.002169   465.065459     0.000000 
 101.915000   433.000000     0.002309   464.738731     0.000000 
 101.923000   476.000000     0.002101   464.424913     0.000000 
 101.931000   536.000000     0.001866   464.123359     0.000000 
 101.939000   474.000000     0.002110   463.833461     0.000000 
 101.947000   444.000000     0.002252   463.554651     0.000000 
 101.955000   463.000000     0.002160   463.286395     0.000000 
 101.963000   514.000000     0.001946   463.028190     0.000000 
 101.971000   508.000000     0.001969   462.779564     0.000000 
 101.979000   521.000000     0.001919   462.540074     0.000000 
 101.987000   515.000000     0.001942   462.309300     0.000000 
 101.995000   467.000000     0.002141   462.086848     0.000000 
 102.003000   460.000000     0.002174   461.872346     0.000000 
 102.011000   507.000000     0.001972   461.665444     0.000000 
 102.019000   511.000000     0.001957   461.465809     0.000000 
 102.027000   469.000000     0.002132   461.273129     0.000000 
 102.035000   453.000000     0.002208   461.087107     0.000000 
 102.043000   471.000000     0.002123   460.907462     0.000000 
 102.051000   522.000000     0.001916   460.733931     0.000000 
 102.059000   486.000000     0.002058   460.566262     0.000000 
 102.067000   480.000000     0.002083   460.404217     0.000000 
 102.075000   445.000000     0.002247   460.247570     0.000000 
 102.083000   548.000000     0.001825   460.096108     0.000000 
 102.091000   474.000000     0.002110   459.949627     0.000000 
 102.099000   447.000000     0.002237   459.807935     0.000000 
 102.107000   431.000000     0.002320   459.670850     0.000000 
 102.115000   417.000000     0.002398   459.538196     0.000000 
 102.123000   469.000000     0.002132   459.409810     0.000000 
 102.131000   477.000000     0.002096   459.285533     0.000000 
 102.139000   487.000000     0.002053   459.165216     0.000000 
 102.147000   449.000000     0.002227   459.048716     0.000000 
 102.155000   470.000000     0.002128   458.935899     0.000000 
 102.163000   490.000000     0.002041   458.826635     0.000000 
 102.171000   444.000000     0.002252   458.720801     0.000000 
 102.179000   436.000000     0.002294   458.618279     0.000000 
 102.187000   490.000000     0.002041   458.518959     0.000000 
 102.195000   502.000000     0.001992   458.422732     0.000000 
 102.203000   470.000000     0.002128   458.329498     0.000000 
 102.211000   480.000000     0.002083   458.239160     0.000000 
 102.219000   492.000000     0.002033   458.151624     0.000000 
 102.227000   480.000000     0.002083   458.066802     0.000000 
 102.235000   486.000000     0.002058   457.984609     0.000000 
 102.243000   460.000000     0.002174   457.904966     0.000000 
 102.251000   479.000000     0.002088   457.827794     0.000000 
 102.259000   523.000000     0.001912   457.753019     0.000000 
 102.267000   491.000000     0.002037   457.680571     0.000000 
 102.275000   440.000000     0.002273   457.610383     0.000000 
 102.283000   400.000000     0.002500   457.542390     0.000000 
 102.291000   447.000000     0.002237   457.476529     0.000000 
 102.299000   465.000000     0.002151   457.412744     0.000000 
 102.307000   504.000000     0.001984   457.350975     0.000000 
 102.315000   421.000000     0.002375   457.291171     0.000000 
 102.323000   472.000000     0.002119   457.540941     0.000000 
 102.331000   427.000000     0.002342   457.486102     0.000000 
 102.339000   472.000000     0.002119   457.433086     0.000000 
 102.347000   469.000000     0.002132   457.381847     0.000000 
 102.355000   499.000000     0.002004   457.332342     0.000000 
 102.363000   471.000000     0.002123   457.284528     0.000000 
 102.371000   447.000000     0.002237   457.238367     0.000000 
 102.379000   477.000000     0.002096   457.193821     0.000000 
 102.387000   490.000000     0.002041   457.150854     0.000000 
 102.395000   479.000000     0.002088   457.109431     0.000000 
 102.403000   444.000000     0.002252   457.069519     0.000000 
 102.411000   449.000000     0.002227   457.031086     0.000000 
 102.419000   465.000000     0.002151   456.994103     0.000000 
 102.427000   481.000000     0.002079   456.958540     0.000000 
 102.435000   466.000000     0.002146   456.924371     0.000000 
 102.443000   434.000000     0.002304   456.891569     0.000000 
 102.451000   480.000000     0.002083   456.860109     0.000000 
 102.459000   477.000000     0.002096   456.829968     0.000000 
 102.467000   486.000000     0.002058   456.801123     0.000000 
 102.475000   469.000000     0.002132   456.773553     0.000000 
 102.483000   478.000000     0.002092   456.747237     0.000000 
 102.491000   500.000000     0.002000   456.722157     0.000000 
 102.499000   467.000000     0.002141   456.698295     0.000000 
 102.507000   467.000000     0.002141   456.675633     0.000000 
 102.515000   460.000000     0.002174   456.654155     0.000000 
 102.523000   504.000000     0.001984   456.633846     0.000000 
 102.531000   500.000000     0.002000   456.648055     0.000000 
 102.539000   447.000000     0.002237   456.630171     0.000000 
 102.547000   433.000000     0.002309   456.613418     0.000000 
 102.555000   447.000000     0.002237   456.597784     0.000000 
 102.563000   447.000000     0.002237   456.583257     0.000000 
 102.571000   447.000000     0.002237   456.702826     0.000000 
 102.579000   462.000000     0.002165   456.691000     0.000000 
 102.587000   457.000000     0.002188   456.680260     0.000000 
 102.595000   461.000000     0.002169   456.670597     0.000000 
 102.603000   476.000000     0.002101   456.662007     0.000000 
 102.611000   432.000000     0.002315   456.654483     0.000000 
 102.619000   470.000000     0.002128   456.648021     0.000000 
 102.627000   503.000000     0.001988   456.642618     0.000000 
 102.635000   506.000000     0.001976   456.638270     0.000000 
 102.643000   476.000000     0.002101   456.634977     0.000000 
 102.651000   446.000000     0.002242   456.632736     0.000000 
 102.659000   468.000000     0.002137   456.631548     0.000000 
 102.667000   488.000000     0.002049   456.631413     0.000000 
 102.675000   474.000000     0.002110   456.632333     0.000000 
 102.683000   476.000000     0.002101   456.634310     0.000000 
 102.691000   450.000000     0.002222   456.637347     0.000000 
 102.699000   458.000000     0.002183   456.641450     0.000000 
 102.707000   435.000000     0.002299   456.646622     0.000000 
 102.715000   467.000000     0.002141   456.652871     0.000000 
 102.723000   476.000000     0.002101   456.660203     0.000000 
 102.731000   462.000000     0.002165   456.668626     0.000000 
 102.739000   443.000000     0.002257   456.678150     0.000000 
 102.747000   429.000000     0.002331   456.688785     0.000000 
 102.755000   444.000000     0.002252   456.700543     0.000000 
 102.763000   444.000000     0.002252   456.713435     0.000000 
 102.771000   433.000000     0.002309   456.727476     0.000000 
 102.779000   435.000000     0.002299   456.742680     0.000000 
 102.787000   430.000000     0.002326   456.759063     0.000000 
 102.795000   475.000000     0.002105   456.776644     0.000000 
 102.803000   470.000000     0.002128   456.795440     0.000000 
 102.811000   456.000000     0.002193   456.815473     0.000000 
 102.819000   487.000000     0.002053   456.836764     0.000000 
 102.827000   455.000000     0.002198   456.859336     0.000000 
 102.835000   456.000000     0.002193   456.883214     0.000000 
 102.843000   441.000000     0.002268   456.908426     0.000000 
 102.851000   490.000000     0.002041   456.934998     0.000000 
 102.859000   447.000000     0.002237   456.962963     0.000000 
 102.867000   484.000000     0.002066   456.992353     0.000000 
 102.875000   449.000000     0.002227   457.023201     0.000000 
 102.883000   431.000000     0.002320   457.055545     0.000000 
 102.891000   442.000000     0.002262   457.089424     0.000000 
 102.899000   466.000000     0.002146   457.124880     0.000000 
 102.907000   489.000000     0.002045   457.161956     0.000000 
 102.915000   506.000000     0.001976   457.200700     0.000000 
 102.923000   498.000000     0.002008   457.241163     0.000000 
 102.931000   486.000000     0.002058   457.283396     0.000000 
 102.939000   479.000000     0.002088   457.327458     0.000000 
 102.947000   497.000000     0.002012   457.373408     0.000000 
 102.955000   485.000000     0.002062   457.421310     0.000000 
 102.963000   461.000000     0.002169   457.471233     0.000000 
 102.971000   472.000000     0.002119   457.523249     0.000000 
 102.979000   446.000000     0.002242   457.577436     0.000000 
 102.987000   445.000000     0.002247   457.633876     0.000000 
 102.995000   441.000000     0.002268   457.692658     0.000000 
 103.003000   468.000000     0.002137   457.753875     0.000000 
 103.011000   478.000000     0.002092   457.817628     0.000000 
 103.019000   472.000000     0.002119   457.884026     0.000000 
 103.027000   468.000000     0.002137   457.953183     0.000000 
 103.035000   471.000000     0.002123   458.025225     0.000000 
 103.043000   490.000000     0.002041   458.100285     0.000000 
 103.051000   453.000000     0.002208   458.178507     0.000000 
 103.059000   468.000000     0.002137   458.260047     0.000000 
 103.067000   470.000000     0.002128   458.345077     0.000000 
 103.075000   461.000000     0.002169   458.433780     0.000000 
 103.083000   452.000000     0.002212   458.526360     0.000000 
 103.091000   434.000000     0.002304   458.623037     0.000000 
 103.099000   464.000000     0.002155   458.724057     0.000000 
 103.107000   441.000000     0.002268   458.829692     0.000000 
 103.115000   468.000000     0.002137   458.940241     0.000000 
 103.123000   490.000000     0.002041   459.056043     0.000000 
 103.131000   475.000000     0.002105   459.177473     0.000000 
 103.139000   473.000000     0.002114   459.304958     0.000000 
 103.147000   460.000000     0.002174   459.438976     0.000000 
 103.155000   442.000000     0.002262   459.580071     0.000000 
 103.163000   457.000000     0.002188   459.728860     0.000000 
 103.171000   464.000000     0.002155   459.886046     0.000000 
 103.179000   437.000000     0.002288   460.052428     0.000000 
 103.187000   484.000000     0.002066   460.228917     0.000000 
 103.195000   453.000000     0.002208   460.416549     0.000000 
 103.203000   509.000000     0.001965   460.621349     0.000000 
 103.211000   471.000000     0.002123   460.834987     0.000000 
 103.219000   524.000000     0.001908   461.063806     0.000000 
 103.227000   439.000000     0.002278   461.309520     0.000000 
 103.235000   511.000000     0.001957   461.574055     0.000000 
 103.243000   492.000000     0.002033   461.859572     0.000000 
 103.251000   480.000000     0.002083   462.168475     0.000000 
 103.259000   494.000000     0.002024   462.503432     0.000000 
 103.267000   454.000000     0.002203   462.867381     0.000000 
 103.275000   445.000000     0.002247   463.263539     0.000000 
 103.283000   477.000000     0.002096   463.695401     0.000000 
 103.291000   472.000000     0.002119   464.166738     0.000000 
 103.299000   459.000000     0.002179   464.681583     0.000000 
 103.307000   470.000000     0.002128   465.286296     0.000000 
 103.315000   479.000000     0.002088   465.901358     0.000000 
 103.323000   496.000000     0.002016   466.573363     0.000000 
 103.331000   497.000000     0.002012   467.307104     0.000000 
 103.339000   494.000000     0.002024   468.107442     0.000000 
 103.347000   493.000000     0.002028   468.979237     0.000000 
 103.355000   480.000000     0.002083   469.927264     0.000000 
 103.363000   500.000000     0.002000   470.956126     0.000000 
 103.371000   473.000000     0.002114   472.070145     0.000000 
 103.379000   476.000000     0.002101   473.273253     0.000000 
 103.387000   478.000000     0.002092   474.568861     0.000000 
 103.395000   497.000000     0.002012   475.959724     0.000000 
 103.403000   525.000000     0.001905   477.447774     0.000000 
 103.411000   508.000000     0.001969   479.033953     0.000000 
 103.419000   505.000000     0.001980   480.718001     0.000000 
 103.427000   532.000000     0.001880   482.498221     0.000000 
 103.435000   517.000000     0.001934   484.371202     0.000000 
 103.443000   505.000000     0.001980   486.331487     0.000000 
 103.451000   521.000000     0.001919   488.371192     0.000000 
 103.459000   443.000000     0.002257   490.479555     0.000000 
 103.467000   481.000000     0.002079   492.642448     0.000000 
 103.475000   473.000000     0.002114   494.841845     0.000000 
 103.483000   459.000000     0.002179   497.055316     0.000000 
 103.491000   445.000000     0.002247   499.255600     0.000000 
 103.499000   452.000000     0.002212   501.410387     0.000000 
 103.507000   477.000000     0.002096   503.482425     0.000000 
 103.515000   492.000000     0.002033   505.430124     0.000000 
 103.523000   492.000000     0.002033   507.208792     0.000000 
 103.531000   517.000000     0.001934   508.772584     0.000000 
 103.539000   531.000000     0.001883   510.077145     0.000000 
 103.547000   482.000000     0.002075   511.082734     0.000000 
 103.555000   528.000000     0.001894   511.757508     0.000000 
 103.563000   500.000000     0.002000   512.080446     0.000000 
 103.571000   485.000000     0.002062   512.043437     0.000000 
 103.579000   529.000000     0.001890   511.652127     0.000000 
 103.587000   539.000000     0.001855   510.925355     0.000000 
 103.595000   483.000000     0.002070   509.893293     0.000000 
 103.603000   495.000000     0.002020   508.594652     0.000000 
 103.611000   509.000000     0.001965   507.073440     0.000000 
 103.619000   527.000000     0.001898   505.375765     0.000000 
 103.627000   507.000000     0.001972   503.547088     0.000000 
 103.635000   481.000000     0.002079   501.630128     0.000000 
 103.643000   444.000000     0.002252   499.663494     0.000000 
 103.651000   491.000000     0.002037   497.680963     0.000000 
 103.659000   471.000000     0.002123   495.711298     0.000000 
 103.667000   482.000000     0.002075   493.778412     0.000000 
 103.675000   511.000000     0.001957   491.901776     0.000000 
 103.683000   518.000000     0.001931   490.096917     0.000000 
 103.691000   503.000000     0.001988   488.375956     0.000000 
 103.699000   503.000000     0.001988   486.748118     0.000000 
 103.707000   497.000000     0.002012   485.220194     0.000000 
 103.715000   475.000000     0.002105   483.796941     0.000000 
 103.723000   464.000000     0.002155   482.481431     0.000000 
 103.731000   511.000000     0.001957   481.275340     0.000000 
 103.739000   497.000000     0.002012   480.179196     0.000000 
 103.747000   453.000000     0.002208   479.192591     0.000000 
 103.755000   433.000000     0.002309   478.314359     0.000000 
 103.763000   477.000000     0.002096   477.542740     0.000000 
 103.771000   492.000000     0.002033   476.875508     0.000000 
 103.779000   463.000000     0.002160   476.310099     0.000000 
 103.787000   462.000000     0.002165   475.843713     0.000000 
 103.795000   460.000000     0.002174   475.473400     0.000000 
 103.803000   509.000000     0.001965   475.196138     0.000000 
 103.811000   440.000000     0.002273   475.008889     0.000000 
 103.819000   499.000000     0.002004   474.908650     0.000000 
 103.827000   496.000000     0.002016   474.892478     0.000000 
 103.835000   465.000000     0.002151   474.957510     0.000000 
 103.843000   492.000000     0.002033   475.100964     0.000000 
 103.851000   489.000000     0.002045   475.320129     0.000000 
 103.859000   500.000000     0.002000   475.612338     0.000000 
 103.867000   486.000000     0.002058   475.974931     0.000000 
 103.875000   479.000000     0.002088   476.405202     0.000000 
 103.883000   513.000000     0.001949   476.900335     0.000000 
 103.891000   492.000000     0.002033   477.457316     0.000000 
 103.899000   461.000000     0.002169   478.072838     0.000000 
 103.907000   503.000000     0.001988   478.743183     0.000000 
 103.915000   485.000000     0.002062   479.464077     0.000000 
 103.923000   506.000000     0.001976   480.230536     0.000000 
 103.931000   537.000000     0.001862   481.036683     0.000000 
 103.939000   499.000000     0.002004   481.875558     0.000000 
 103.947000   515.000000     0.001942   482.738924     0.000000 
 103.955000   492.000000     0.002033   483.617100     0.000000 
 103.963000   529.000000     0.001890   484.498844     0.000000 
 103.971000   517.000000     0.001934   485.371331     0.000000 
 103.979000   508.000000     0.001969   486.220281     0.000000 
 103.987000   508.000000     0.001969   487.030283     0.000000 
 103.995000   497.000000     0.002012   487.785346     0.000000 
 104.003000   542.000000     0.001845   488.469694     0.000000 
 104.011000   543.000000     0.001842   489.068756     0.000000 
 104.019000   519.000000     0.001927   489.570255     0.000000 
 104.027000   538.000000     0.001859   489.965259     0.000000 
 104.035000   540.000000     0.001852   490.249022     0.000000 
 104.043000   524.000000     0.001908   490.421462     0.000000 
 104.051000   504.000000     0.001984   490.225035     0.000000 
 104.059000   518.000000     0.001931   490.194105     0.000000 
 104.067000   517.000000     0.001934   490.077656     0.000000 
 104.075000   493.000000     0.002028   489.890437     0.000000 
 104.083000   481.000000     0.002079   489.648507     0.000000 
 104.091000   478.000000     0.002092   489.368231     0.000000 
 104.099000   490.000000     0.002041   489.065441     0.000000 
 104.107000   477.000000     0.002096   488.754846     0.000000 
 104.115000   484.000000     0.002066   488.449675     0.000000 
 104.123000   531.000000     0.001883   488.161508     0.000000 
 104.131000   508.000000     0.001969   487.900280     0.000000 
 104.139000   539.000000     0.001855   487.674366     0.000000 
 104.147000   548.000000     0.001825   487.490739     0.000000 
 104.155000   563.000000     0.001776   487.355147     0.000000 
 104.163000   531.000000     0.001883   487.272293     0.000000 
 104.171000   458.000000     0.002183   487.246004     0.000000 
 104.179000   526.000000     0.001901   487.279391     0.000000 
 104.187000   464.000000     0.002155   487.374975     0.000000 
 104.195000   440.000000     0.002273   487.534815     0.000000 
 104.203000   491.000000     0.002037   487.760606     0.000000 
 104.211000   506.000000     0.001976   488.053776     0.000000 
 104.219000   503.000000     0.001988   488.415569     0.000000 
 104.227000   488.000000     0.002049   488.847124     0.000000 
 104.235000   485.000000     0.002062   489.349556     0.000000 
 104.243000   468.000000     0.002137   489.924024     0.000000 
 104.251000   500.000000     0.002000   490.571814     0.000000 
 104.259000   519.000000     0.001927   491.294414     0.000000 
 104.267000   483.000000     0.002070   492.093592     0.000000 
 104.275000   469.000000     0.002132   492.971488     0.000000 
 104.283000   471.000000     0.002123   493.930695     0.000000 
 104.291000   467.000000     0.002141   494.974365     0.000000 
 104.299000   487.000000     0.002053   496.106306     0.000000 
 104.307000   519.000000     0.001927   497.331100     0.000000 
 104.315000   464.000000     0.002155   498.654221     0.000000 
 104.323000   445.000000     0.002247   500.082174     0.000000 
 104.331000   509.000000     0.001965   501.622634     0.000000 
 104.339000   532.000000     0.001880   503.284607     0.000000 
 104.347000   519.000000     0.001927   505.078597     0.000000 
 104.355000   496.000000     0.002016   507.016787     0.000000 
 104.363000   483.000000     0.002070   509.113228     0.000000 
 104.371000   432.000000     0.002315   511.384035     0.000000 
 104.379000   487.000000     0.002053   513.847596     0.000000 
 104.387000   474.000000     0.002110   516.524768     0.000000 
 104.395000   469.000000     0.002132   519.439081     0.000000 
 104.403000   489.000000     0.002045   522.616921     0.000000 
 104.411000   501.000000     0.001996   526.087703     0.000000 
 104.419000   500.000000     0.002000   529.884007     0.000000 
 104.427000   507.000000     0.001972   534.041686     0.000000 
 104.435000   506.000000     0.001976   538.599917     0.000000 
 104.443000   526.000000     0.001901   543.601204     0.000000 
 104.451000   556.000000     0.001799   549.091297     0.000000 
 104.459000   541.000000     0.001848   555.119045     0.000000 
 104.467000   538.000000     0.001859   561.736148     0.000000 
 104.475000   572.000000     0.001748   568.996810     0.000000 
 104.483000   539.000000     0.001855   576.957291     0.000000 
 104.491000   516.000000     0.001938   585.675335     0.000000 
 104.499000   546.000000     0.001832   595.209494     0.000000 
 104.507000   564.000000     0.001773   605.618312     0.000000 
 104.515000   556.000000     0.001799   616.959412     0.000000 
 104.523000   578.000000     0.001730   629.288443     0.000000 
 104.531000   553.000000     0.001808   642.657919     0.000000 
 104.539000   586.000000     0.001706   657.115929     0.000000 
 104.547000   596.000000     0.001678   672.704713     0.000000 
 104.555000   581.000000     0.001721   689.459105     0.000000 
 104.563000   641.000000     0.001560   707.404805     0.000000 
 104.571000   604.000000     0.001656   726.556443     0.000000 
 104.579000   621.000000     0.001610   746.915400     0.000000 
 104.587000   634.000000     0.001577   768.467297     0.000000 
 104.595000   686.000000     0.001458   791.179106     0.000000 
 104.603000   690.000000     0.001449   814.995739     0.000000 
 104.611000   725.000000     0.001379   839.836102     0.000000 
 104.619000   777.000000     0.001287   865.588501     0.000000 
 104.627000   809.000000     0.001236   892.105446     0.000000 
 104.635000   836.000000     0.001196   919.197971     0.000000 
 104.643000   882.000000     0.001134   946.629788     0.000000 
 104.651000   940.000000     0.001064   974.111865     0.000000 
 104.659000   995.000000     0.001005  1001.298243     0.000000 
 104.667000  1059.000000     0.000944  1027.784442     0.000000 
 104.675000  1124.000000     0.000890  1053.109851     0.000000 
 104.683000  1291.000000     0.000775  1076.765849     0.000000 
 104.691000  1411.000000     0.000709  1098.210988     0.000000 
 104.699000  1421.000000     0.000704  1116.893994     0.000000 
 104.707000  1606.000000     0.000623  1132.284079     0.000000 
 104.715000  1727.000000     0.000579  1143.906340     0.000000 
 104.723000  1799.000000     0.000556  1151.378438     0.000000 
 104.731000  1933.000000     0.000517  1154.443459     0.000000 
 104.739000  1992.000000     0.000502  1152.993586     0.000000 
 104.747000  1925.000000     0.000519  1147.080402     0.000000 
 104.755000  1907.000000     0.000524  1136.909947     0.000000 
 104.763000  1881.000000     0.000532  1122.823394     0.000000 
 104.771000  1754.000000     0.000570  1105.266850     0.000000 
 104.779000  1604.000000     0.000623  1084.755480     0.000000 
 104.787000  1535.000000     0.000651  1061.837045     0.000000 
 104.795000  1431.000000     0.000699  1037.059515     0.000000 
 104.803000  1329.000000     0.000752  1010.945267     0.000000 
 104.811000  1202.000000     0.000832   983.973219     0.000000 
 104.819000  1075.000000     0.000930   956.568288     0.000000 
 104.827000  1038.000000     0.000963   929.097184     0.000000 
 104.835000  1011.000000     0.000989   901.868750     0.000000 
 104.843000   949.000000     0.001054   875.137394     0.000000 
 104.851000   926.000000     0.001080   849.108197     0.000000 
 104.859000   867.000000     0.001153   823.942673     0.000000 
 104.867000   841.000000     0.001189   799.764571     0.000000 
 104.875000   805.000000     0.001242   776.665257     0.000000 
 104.883000   777.000000     0.001287   754.708530     0.000000 
 104.891000   746.000000     0.001340   733.934799     0.000000 
 104.899000   729.000000     0.001372   714.364661     0.000000 
 104.907000   727.000000     0.001376   696.001980     0.000000 
 104.915000   738.000000     0.001355   678.836517     0.000000 
 104.923000   649.000000     0.001541   662.846216     0.000000 
 104.931000   638.000000     0.001567   647.999225     0.000000 
 104.939000   648.000000     0.001543   634.192088     0.000000 
 104.947000   648.000000     0.001543   621.506019     0.000000 
 104.955000   658.000000     0.001520   609.825975     0.000000 
 104.963000   636.000000     0.001572   599.097194     0.000000 
 104.971000   632.000000     0.001582   589.262539     0.000000 
 104.979000   550.000000     0.001818   580.038362     0.000000 
 104.987000   586.000000     0.001706   571.817323     0.000000 
 104.995000   592.000000     0.001689   564.314966     0.000000 
 105.003000   610.000000     0.001639   557.474289     0.000000 
 105.011000   611.000000     0.001637   551.240137     0.000000 
 105.019000   573.000000     0.001745   545.559690     0.000000 
 105.027000   575.000000     0.001739   540.382846     0.000000 
 105.035000   557.000000     0.001795   535.662491     0.000000 
 105.043000   567.000000     0.001764   531.354684     0.000000 
 105.051000   567.000000     0.001764   527.418755     0.000000 
 105.059000   520.000000     0.001923   523.817319     0.000000 
 105.067000   535.000000     0.001869   520.516242     0.000000 
 105.075000   501.000000     0.001996   517.484543     0.000000 
 105.083000   533.000000     0.001876   514.694263     0.000000 
 105.091000   547.000000     0.001828   512.120294     0.000000 
 105.099000   476.000000     0.002101   509.740196     0.000000 
 105.107000   491.000000     0.002037   507.533995     0.000000 
 105.115000   544.000000     0.001838   505.483970     0.000000 
 105.123000   530.000000     0.001887   503.574453     0.000000 
 105.131000   520.000000     0.001923   501.791619     0.000000 
 105.139000   545.000000     0.001835   500.123294     0.000000 
 105.147000   547.000000     0.001828   498.558766     0.000000 
 105.155000   553.000000     0.001808   497.088620     0.000000 
 105.163000   588.000000     0.001701   495.704573     0.000000 
 105.171000   569.000000     0.001757   494.399336     0.000000 
 105.179000   560.000000     0.001786   493.166486     0.000000 
 105.187000   594.000000     0.001684   492.000347     0.000000 
 105.195000   589.000000     0.001698   490.895893     0.000000 
 105.203000   548.000000     0.001825   489.848662     0.000000 
 105.211000   551.000000     0.001815   488.854673     0.000000 
 105.219000   568.000000     0.001761   487.910366     0.000000 
 105.227000   519.000000     0.001927   487.012541     0.000000 
 105.235000   452.000000     0.002212   486.158314     0.000000 
 105.243000   491.000000     0.002037   485.345071     0.000000 
 105.251000   496.000000     0.002016   484.570434     0.000000 
 105.259000   510.000000     0.001961   483.832235     0.000000 
 105.267000   504.000000     0.001984   483.128485     0.000000 
 105.275000   476.000000     0.002101   482.457357     0.000000 
 105.283000   413.000000     0.002421   481.817167     0.000000 
 105.291000   441.000000     0.002268   481.206355     0.000000 
 105.299000   453.000000     0.002208   480.623479     0.000000 
 105.307000   482.000000     0.002075   480.067196     0.000000 
 105.315000   505.000000     0.001980   479.536259     0.000000 
 105.323000   484.000000     0.002066   479.029503     0.000000 
 105.331000   501.000000     0.001996   478.545843     0.000000 
 105.339000   459.000000     0.002179   478.084263     0.000000 
 105.347000   495.000000     0.002020   477.643814     0.000000 
 105.355000   472.000000     0.002119   477.223605     0.000000 
 105.363000   472.000000     0.002119   476.822805     0.000000 
 105.371000   438.000000     0.002283   476.440632     0.000000 
 105.379000   427.000000     0.002342   476.076354     0.000000 
 105.387000   477.000000     0.002096   475.729285     0.000000 
 105.395000   477.000000     0.002096   475.398779     0.000000 
 105.403000   442.000000     0.002262   475.084233     0.000000 
 105.411000   434.000000     0.002304   474.785078     0.000000 
 105.419000   422.000000     0.002370   474.500785     0.000000 
 105.427000   416.000000     0.002404   474.230852     0.000000 
 105.435000   431.000000     0.002320   473.974815     0.000000 
 105.443000   489.000000     0.002045   473.732234     0.000000 
 105.451000   478.000000     0.002092   473.502700     0.000000 
 105.459000   436.000000     0.002294   473.285829     0.000000 
 105.467000   481.000000     0.002079   473.081264     0.000000 
 105.475000   495.000000     0.002020   472.888668     0.000000 
 105.483000   472.000000     0.002119   472.707732     0.000000 
 105.491000   461.000000     0.002169   472.538166     0.000000 
 105.499000   410.000000     0.002439   472.379700     0.000000 
 105.507000   462.000000     0.002165   472.232085     0.000000 
 105.515000   455.000000     0.002198   472.095092     0.000000 
 105.523000   462.000000     0.002165   471.968508     0.000000 
 105.531000   478.000000     0.002092   471.852140     0.000000 
 105.539000   453.000000     0.002208   471.745810     0.000000 
 105.547000   444.000000     0.002252   471.649358     0.000000 
 105.555000   434.000000     0.002304   471.562640     0.000000 
 105.563000   410.000000     0.002439   471.485527     0.000000 
 105.571000   410.000000     0.002439   471.417904     0.000000 
 105.579000   444.000000     0.002252   471.359674     0.000000 
 105.587000   448.000000     0.002232   471.310751     0.000000 
 105.595000   445.000000     0.002247   471.271066     0.000000 
 105.603000   496.000000     0.002016   471.240563     0.000000 
 105.611000   516.000000     0.001938   471.219199     0.000000 
 105.619000   505.000000     0.001980   471.206946     0.000000 
 105.627000   484.000000     0.002066   471.203791     0.000000 
 105.635000   448.000000     0.002232   471.209732     0.000000 
 105.643000   499.000000     0.002004   471.224782     0.000000 
 105.651000   529.000000     0.001890   471.248969     0.000000 
 105.659000   515.000000     0.001942   471.282333     0.000000 
 105.667000   506.000000     0.001976   471.324928     0.000000 
 105.675000   462.000000     0.002165   471.376825     0.000000 
 105.683000   491.000000     0.002037   471.438106     0.000000 
 105.691000   459.000000     0.002179   471.508870     0.000000 
 105.699000   482.000000     0.002075   471.589230     0.000000 
 105.707000   450.000000     0.002222   471.679315     0.000000 
 105.715000   473.000000     0.002114   471.779270     0.000000 
 105.723000   507.000000     0.001972   471.889256     0.000000 
 105.731000   498.000000     0.002008   472.009452     0.000000 
 105.739000   468.000000     0.002137   472.140054     0.000000 
 105.747000   486.000000     0.002058   472.281274     0.000000 
 105.755000   486.000000     0.002058   472.433346     0.000000 
 105.763000   481.000000     0.002079   472.596523     0.000000 
 105.771000   490.000000     0.002041   472.771078     0.000000 
 105.779000   485.000000     0.002062   472.957307     0.000000 
 105.787000   484.000000     0.002066   473.155527     0.000000 
 105.795000   488.000000     0.002049   473.366081     0.000000 
 105.803000   513.000000     0.001949   473.589336     0.000000 
 105.811000   485.000000     0.002062   473.825687     0.000000 
 105.819000   460.000000     0.002174   474.075555     0.000000 
 105.827000   474.000000     0.002110   474.339393     0.000000 
 105.835000   528.000000     0.001894   474.617688     0.000000 
 105.843000   498.000000     0.002008   474.910958     0.000000 
 105.851000   505.000000     0.001980   475.219759     0.000000 
 105.859000   540.000000     0.001852   475.544688     0.000000 
 105.867000   492.000000     0.002033   475.886383     0.000000 
 105.875000   499.000000     0.002004   476.245531     0.000000 
 105.883000   497.000000     0.002012   476.622868     0.000000 
 105.891000   488.000000     0.002049   477.019185     0.000000 
 105.899000   446.000000     0.002242   477.435337     0.000000 
 105.907000   457.000000     0.002188   477.872242     0.000000 
 105.915000   501.000000     0.001996   478.330897     0.000000 
 105.923000   521.000000     0.001919   478.812381     0.000000 
 105.931000   536.000000     0.001866   479.317868     0.000000 
 105.939000   529.000000     0.001890   479.848638     0.000000 
 105.947000   487.000000     0.002053   480.406090     0.000000 
 105.955000   467.000000     0.002141   480.991761     0.000000 
 105.963000   478.000000     0.002092   481.607344     0.000000 
 105.971000   487.000000     0.002053   482.254711     0.000000 
 105.979000   477.000000     0.002096   482.935937     0.000000 
 105.987000   438.000000     0.002283   483.653334     0.000000 
 105.995000   452.000000     0.002212   484.409484     0.000000 
 106.003000   493.000000     0.002028   485.207279     0.000000 
 106.011000   498.000000     0.002008   486.049968     0.000000 
 106.019000   456.000000     0.002193   486.941207     0.000000 
 106.027000   426.000000     0.002347   487.885118     0.000000 
 106.035000   478.000000     0.002092   488.886356     0.000000 
 106.043000   458.000000     0.002183   489.950179     0.000000 
 106.051000   443.000000     0.002257   491.082527     0.000000 
 106.059000   476.000000     0.002101   492.290106     0.000000 
 106.067000   469.000000     0.002132   493.580483     0.000000 
 106.075000   512.000000     0.001953   494.962178     0.000000 
 106.083000   493.000000     0.002028   496.444768     0.000000 
 106.091000   494.000000     0.002024   498.038985     0.000000 
 106.099000   520.000000     0.001923   499.756822     0.000000 
 106.107000   504.000000     0.001984   501.611631     0.000000 
 106.115000   490.000000     0.002041   503.618216     0.000000 
 106.123000   489.000000     0.002045   505.792917     0.000000 
 106.131000   504.000000     0.001984   508.153684     0.000000 
 106.139000   488.000000     0.002049   510.720127     0.000000 
 106.147000   486.000000     0.002058   513.513548     0.000000 
 106.155000   497.000000     0.002012   516.556942     0.000000 
 106.163000   475.000000     0.002105   519.874973     0.000000 
 106.171000   505.000000     0.001980   523.493901     0.000000 
 106.179000   516.000000     0.001938   527.441479     0.000000 
 106.187000   498.000000     0.002008   531.746799     0.000000 
 106.195000   498.000000     0.002008   536.440084     0.000000 
 106.203000   539.000000     0.001855   541.552442     0.000000 
 106.211000   495.000000     0.002020   547.115551     0.000000 
 106.219000   449.000000     0.002227   553.161300     0.000000 
 106.227000   518.000000     0.001931   559.721371     0.000000 
 106.235000   502.000000     0.001992   566.826769     0.000000 
 106.243000   461.000000     0.002169   574.507294     0.000000 
 106.251000   531.000000     0.001883   582.790971     0.000000 
 106.259000   551.000000     0.001815   591.703412     0.000000 
 106.267000   542.000000     0.001845   601.267131     0.000000 
 106.275000   566.000000     0.001767   611.500797     0.000000 
 106.283000   548.000000     0.001825   622.418408     0.000000 
 106.291000   521.000000     0.001919   634.028382     0.000000 
 106.299000   563.000000     0.001776   646.332543     0.000000 
 106.307000   572.000000     0.001748   659.324962     0.000000 
 106.315000   604.000000     0.001656   672.990627     0.000000 
 106.323000   634.000000     0.001577   687.303907     0.000000 
 106.331000   634.000000     0.001577   702.226772     0.000000 
 106.339000   635.000000     0.001575   717.706739     0.000000 
 106.347000   625.000000     0.001600   733.674554     0.000000 
 106.355000   645.000000     0.001550   750.041640     0.000000 
 106.363000   709.000000     0.001410   766.697447     0.000000 
 106.371000   792.000000     0.001263   783.506874     0.000000 
 106.379000   762.000000     0.001312   800.308143     0.000000 
 106.387000   749.000000     0.001335   816.911549     0.000000 
 106.395000   832.000000     0.001202   833.099736     0.000000 
 106.403000   933.000000     0.001072   848.630147     0.000000 
 106.411000  1016.000000     0.000984   863.240334     0.000000 
 106.419000  1046.000000     0.000956   876.656664     0.000000 
 106.427000  1132.000000     0.000883   888.606469     0.000000 
 106.435000  1202.000000     0.000832   898.833211     0.000000 
 106.443000  1218.000000     0.000821   907.113520     0.000000 
 106.451000  1239.000000     0.000807   913.274202     0.000000 
 106.459000  1375.000000     0.000727   917.207016     0.000000 
 106.467000  1445.000000     0.000692   918.878972     0.000000 
 106.475000  1457.000000     0.000686   918.336373     0.000000 
 106.483000  1454.000000     0.000688   915.702011     0.000000 
 106.491000  1387.000000     0.000721   911.165828     0.000000 
 106.499000  1316.000000     0.000760   904.970629     0.000000 
 106.507000  1255.000000     0.000797   897.395032     0.000000 
 106.515000  1158.000000     0.000864   888.735858     0.000000 
 106.523000  1088.000000     0.000919   879.292012     0.000000 
 106.531000  1051.000000     0.000951   869.351147     0.000000 
 106.539000   999.000000     0.001001   859.179735     0.000000 
 106.547000   954.000000     0.001048   849.016529     0.000000 
 106.555000   876.000000     0.001142   839.069016     0.000000 
 106.563000   844.000000     0.001185   829.512136     0.000000 
 106.571000   839.000000     0.001192   820.488646     0.000000 
 106.579000   813.000000     0.001230   812.110382     0.000000 
 106.587000   803.000000     0.001245   804.459992     0.000000 
 106.595000   792.000000     0.001263   797.592724     0.000000 
 106.603000   731.000000     0.001368   791.538029     0.000000 
 106.611000   761.000000     0.001314   786.300902     0.000000 
 106.619000   753.000000     0.001328   781.862930     0.000000 
 106.627000   719.000000     0.001391   778.183081     0.000000 
 106.635000   690.000000     0.001449   775.198413     0.000000 
 106.643000   705.000000     0.001418   772.824882     0.000000 
 106.651000   710.000000     0.001408   770.958411     0.000000 
 106.659000   741.000000     0.001350   769.476542     0.000000 
 106.667000   774.000000     0.001292   768.240853     0.000000 
 106.675000   781.000000     0.001280   767.100361     0.000000 
 106.683000   808.000000     0.001238   765.896046     0.000000 
 106.691000   812.000000     0.001232   764.466485     0.000000 
 106.699000   860.000000     0.001163   762.654496     0.000000 
 106.707000   896.000000     0.001116   760.314438     0.000000 
 106.715000   938.000000     0.001066   757.319676     0.000000 
 106.723000   961.000000     0.001041   753.569536     0.000000 
 106.731000  1020.000000     0.000980   748.994962     0.000000 
 106.739000  1050.000000     0.000952   743.562178     0.000000 
 106.747000  1078.000000     0.000928   737.273749     0.000000 
 106.755000  1046.000000     0.000956   730.166900     0.000000 
 106.763000   997.000000     0.001003   722.309256     0.000000 
 106.771000   947.000000     0.001056   713.792597     0.000000 
 106.779000   898.000000     0.001114   704.725489     0.000000 
 106.787000   813.000000     0.001230   695.225712     0.000000 
 106.795000   777.000000     0.001287   685.413279     0.000000 
 106.803000   771.000000     0.001297   675.404656     0.000000 
 106.811000   720.000000     0.001389   665.308419     0.000000 
 106.819000   679.000000     0.001473   655.222445     0.000000 
 106.827000   704.000000     0.001420   645.232412     0.000000 
 106.835000   681.000000     0.001468   635.411386     0.000000 
 106.843000   644.000000     0.001553   625.820173     0.000000 
 106.851000   571.000000     0.001751   616.508149     0.000000 
 106.859000   578.000000     0.001730   607.514372     0.000000 
 106.867000   576.000000     0.001736   598.868772     0.000000 
 106.875000   570.000000     0.001754   590.593325     0.000000 
 106.883000   546.000000     0.001832   582.703145     0.000000 
 106.891000   538.000000     0.001859   575.207464     0.000000 
 106.899000   570.000000     0.001754   568.110480     0.000000 
 106.907000   592.000000     0.001689   561.412108     0.000000 
 106.915000   576.000000     0.001736   555.108613     0.000000 
 106.923000   529.000000     0.001890   549.193176     0.000000 
 106.931000   515.000000     0.001942   543.656381     0.000000 
 106.939000   511.000000     0.001957   538.486659     0.000000 
 106.947000   536.000000     0.001866   533.670676     0.000000 
 106.955000   485.000000     0.002062   529.193701     0.000000 
 106.963000   466.000000     0.002146   525.039928     0.000000 
 106.971000   473.000000     0.002114   521.192786     0.000000 
 106.979000   457.000000     0.002188   517.635215     0.000000 
 106.987000   475.000000     0.002105   514.349917     0.000000 
 106.995000   468.000000     0.002137   511.319583     0.000000 
 107.003000   518.000000     0.001931   508.527101     0.000000 
 107.011000   495.000000     0.002020   505.955726     0.000000 
 107.019000   514.000000     0.001946   503.589238     0.000000 
 107.027000   517.000000     0.001934   501.412060     0.000000 
 107.035000   503.000000     0.001988   499.409368     0.000000 
 107.043000   483.000000     0.002070   497.567163     0.000000 
 107.051000   471.000000     0.002123   495.872330     0.000000 
 107.059000   442.000000     0.002262   494.312671     0.000000 
 107.067000   476.000000     0.002101   492.876928     0.000000 
 107.075000   515.000000     0.001942   491.554783     0.000000 
 107.083000   519.000000     0.001927   490.336847     0.000000 
 107.091000   516.000000     0.001938   489.214643     0.000000 
 107.099000   508.000000     0.001969   488.180570     0.000000 
 107.107000   509.000000     0.001965   487.227872     0.000000 
 107.115000   514.000000     0.001946   486.350595     0.000000 
 107.123000   536.000000     0.001866   485.543545     0.000000 
 107.131000   536.000000     0.001866   484.802241     0.000000 
 107.139000   513.000000     0.001949   484.122875     0.000000 
 107.147000   465.000000     0.002151   483.502267     0.000000 
 107.155000   507.000000     0.001972   482.937819     0.000000 
 107.163000   527.000000     0.001898   482.427486     0.000000 
 107.171000   534.000000     0.001873   481.969730     0.000000 
 107.179000   508.000000     0.001969   481.563494     0.000000 
 107.187000   522.000000     0.001916   481.208165     0.000000 
 107.195000   451.000000     0.002217   480.903558     0.000000 
 107.203000   489.000000     0.002045   480.649873     0.000000 
 107.211000   464.000000     0.002155   480.447687     0.000000 
 107.219000   440.000000     0.002273   480.297921     0.000000 
 107.227000   485.000000     0.002062   480.201826     0.000000 
 107.235000   535.000000     0.001869   480.160954     0.000000 
 107.243000   479.000000     0.002088   480.177135     0.000000 
 107.251000   464.000000     0.002155   480.252457     0.000000 
 107.259000   482.000000     0.002075   480.389231     0.000000 
 107.267000   492.000000     0.002033   480.589964     0.000000 
 107.275000   506.000000     0.001976   480.857318     0.000000 
 107.283000   507.000000     0.001972   481.194070     0.000000 
 107.291000   476.000000     0.002101   481.603060     0.000000 
 107.299000   449.000000     0.002227   482.087137     0.000000 
 107.307000   480.000000     0.002083   482.649089     0.000000 
 107.315000   477.000000     0.002096   483.291573     0.000000 
 107.323000   465.000000     0.002151   484.017025     0.000000 
 107.331000   502.000000     0.001992   484.827571     0.000000 
 107.339000   530.000000     0.001887   485.724920     0.000000 
 107.347000   471.000000     0.002123   486.710258     0.000000 
 107.355000   525.000000     0.001905   487.784133     0.000000 
 107.363000   530.000000     0.001887   488.946345     0.000000 
 107.371000   511.000000     0.001957   490.195837     0.000000 
 107.379000   513.000000     0.001949   491.530610     0.000000 
 107.387000   503.000000     0.001988   492.947648     0.000000 
 107.395000   510.000000     0.001961   494.442883     0.000000 
 107.403000   502.000000     0.001992   495.972275     0.000000 
 107.411000   457.000000     0.002188   497.607622     0.000000 
 107.419000   481.000000     0.002079   499.326130     0.000000 
 107.427000   477.000000     0.002096   501.072812     0.000000 
 107.435000   484.000000     0.002066   502.861937     0.000000 
 107.443000   497.000000     0.002012   504.683379     0.000000 
 107.451000   491.000000     0.002037   506.525858     0.000000 
 107.459000   492.000000     0.002033   508.661769     0.000000 
 107.467000   493.000000     0.002028   510.507482     0.000000 
 107.475000   466.000000     0.002146   512.330551     0.000000 
 107.483000   500.000000     0.002000   514.111823     0.000000 
 107.491000   488.000000     0.002049   515.829231     0.000000 
 107.499000   495.000000     0.002020   517.457629     0.000000 
 107.507000   503.000000     0.001988   518.968902     0.000000 
 107.515000   519.000000     0.001927   520.332453     0.000000 
 107.523000   513.000000     0.001949   521.516124     0.000000 
 107.531000   549.000000     0.001821   522.487565     0.000000 
 107.539000   568.000000     0.001761   523.215977     0.000000 
 107.547000   506.000000     0.001976   523.674108     0.000000 
 107.555000   522.000000     0.001916   523.840279     0.000000 
 107.563000   576.000000     0.001736   523.700173     0.000000 
 107.571000   628.000000     0.001592   523.248150     0.000000 
 107.579000   642.000000     0.001558   522.487860     0.000000 
 107.587000   630.000000     0.001587   521.432083     0.000000 
 107.595000   600.000000     0.001667   520.101804     0.000000 
 107.603000   568.000000     0.001761   518.524688     0.000000 
 107.611000   549.000000     0.001821   516.733174     0.000000 
 107.619000   520.000000     0.001923   514.762459     0.000000 
 107.627000   493.000000     0.002028   512.648585     0.000000 
 107.635000   491.000000     0.002037   510.426818     0.000000 
 107.643000   481.000000     0.002079   508.130404     0.000000 
 107.651000   482.000000     0.002075   505.789713     0.000000 
 107.659000   483.000000     0.002070   503.431762     0.000000 
 107.667000   477.000000     0.002096   501.080032     0.000000 
 107.675000   501.000000     0.001996   498.754514     0.000000 
 107.683000   515.000000     0.001942   496.471897     0.000000 
 107.691000   480.000000     0.002083   494.245851     0.000000 
 107.699000   488.000000     0.002049   492.087343     0.000000 
 107.707000   505.000000     0.001980   490.004963     0.000000 
 107.715000   481.000000     0.002079   488.005224     0.000000 
 107.723000   480.000000     0.002083   486.092849     0.000000 
 107.731000   463.000000     0.002160   484.271009     0.000000 
 107.739000   488.000000     0.002049   482.541548     0.000000 
 107.747000   439.000000     0.002278   480.905166     0.000000 
 107.755000   439.000000     0.002278   479.361584     0.000000 
 107.763000   481.000000     0.002079   477.909688     0.000000 
 107.771000   457.000000     0.002188   476.547656     0.000000 
 107.779000   460.000000     0.002174   475.273070     0.000000 
 107.787000   487.000000     0.002053   474.083021     0.000000 
 107.795000   459.000000     0.002179   472.974204     0.000000 
 107.803000   456.000000     0.002193   471.942997     0.000000 
 107.811000   454.000000     0.002203   470.985550     0.000000 
 107.819000   500.000000     0.002000   470.097848     0.000000 
 107.827000   491.000000     0.002037   469.275784     0.000000 
 107.835000   435.000000     0.002299   468.515210     0.000000 
 107.843000   458.000000     0.002183   467.811999     0.000000 
 107.851000   506.000000     0.001976   467.162083     0.000000 
 107.859000   508.000000     0.001969   466.561496     0.000000 
 107.867000   500.000000     0.002000   466.006406     0.000000 
 107.875000   537.000000     0.001862   465.493144     0.000000 
 107.883000   475.000000     0.002105   465.018220     0.000000 
 107.891000   433.000000     0.002309   464.578344     0.000000 
 107.899000   491.000000     0.002037   464.170431     0.000000 
 107.907000   473.000000     0.002114   463.791608     0.000000 
 107.915000   528.000000     0.001894   463.439219     0.000000 
 107.923000   528.000000     0.001894   463.096899     0.000000 
 107.931000   454.000000     0.002203   462.790299     0.000000 
 107.939000   504.000000     0.001984   462.503405     0.000000 
 107.947000   516.000000     0.001938   462.234364     0.000000 
 107.955000   441.000000     0.002268   461.981504     0.000000 
 107.963000   437.000000     0.002288   461.743319     0.000000 
 107.971000   470.000000     0.002128   461.518458     0.000000 
 107.979000   474.000000     0.002110   461.305712     0.000000 
 107.987000   476.000000     0.002101   461.104001     0.000000 
 107.995000   464.000000     0.002155   460.912364     0.000000 
 108.003000   460.000000     0.002174   460.729945     0.000000 
 108.011000   460.000000     0.002174   460.555981     0.000000 
 108.019000   443.000000     0.002257   460.389797     0.000000 
 108.027000   459.000000     0.002179   460.230790     0.000000 
 108.035000   511.000000     0.001957   460.078425     0.000000 
 108.043000   504.000000     0.001984   459.932223     0.000000 
 108.051000   470.000000     0.002128   459.791760     0.000000 
 108.059000   460.000000     0.002174   459.656652     0.000000 
 108.067000   448.000000     0.002232   459.526558     0.000000 
 108.075000   454.000000     0.002203   459.401169     0.000000 
 108.083000   462.000000     0.002165   459.280207     0.000000 
 108.091000   462.000000     0.002165   459.163420     0.000000 
 108.099000   488.000000     0.002049   459.050578     0.000000 
 108.107000   455.000000     0.002198   458.941472     0.000000 
 108.115000   459.000000     0.002179   458.835908     0.000000 
 108.123000   489.000000     0.002045   458.733711     0.000000 
 108.131000   449.000000     0.002227   458.634718     0.000000 
 108.139000   466.000000     0.002146   458.538776     0.000000 
 108.147000   489.000000     0.002045   458.445746     0.000000 
 108.155000   439.000000     0.002278   458.355498     0.000000 
 108.163000   485.000000     0.002062   458.267908     0.000000 
 108.171000   482.000000     0.002075   458.182862     0.000000 
 108.179000   461.000000     0.002169   458.100253     0.000000 
 108.187000   477.000000     0.002096   458.019979     0.000000 
 108.195000   483.000000     0.002070   457.941947     0.000000 
 108.203000   466.000000     0.002146   457.866065     0.000000 
 108.211000   440.000000     0.002273   457.845814     0.000000 
 108.219000   444.000000     0.002252   457.774158     0.000000 
 108.227000   458.000000     0.002183   457.704413     0.000000 
 108.235000   456.000000     0.002193   457.636506     0.000000 
 108.243000   422.000000     0.002370   457.570369     0.000000 
 108.251000   433.000000     0.002309   457.505938     0.000000 
 108.259000   440.000000     0.002273   457.443149     0.000000 
 108.267000   428.000000     0.002336   457.381945     0.000000 
 108.275000   459.000000     0.002179   457.322269     0.000000 
 108.283000   531.000000     0.001883   457.264069     0.000000 
 108.291000   432.000000     0.002315   457.207293     0.000000 
 108.299000   471.000000     0.002123   457.151893     0.000000 
 108.307000   391.000000     0.002558   457.097823     0.000000 
 108.315000   401.000000     0.002494   457.045038     0.000000 
 108.323000   433.000000     0.002309   456.993498     0.000000 
 108.331000   417.000000     0.002398   456.943160     0.000000 
 108.339000   453.000000     0.002208   456.893988     0.000000 
 108.347000   467.000000     0.002141   456.845943     0.000000 
 108.355000   470.000000     0.002128   456.798991     0.000000 
 108.363000   476.000000     0.002101   456.753098     0.000000 
 108.371000   474.000000     0.002110   456.708231     0.000000 
 108.379000   464.000000     0.002155   456.664360     0.000000 
 108.387000   459.000000     0.002179   456.621455     0.000000 
 108.395000   458.000000     0.002183   456.579487     0.000000 
 108.403000   447.000000     0.002237   456.538430     0.000000 
 108.411000   417.000000     0.002398   456.498255     0.000000 
 108.419000   424.000000     0.002358   456.458940     0.000000 
 108.427000   448.000000     0.002232   456.420458     0.000000 
 108.435000   418.000000     0.002392   456.382788     0.000000 
 108.443000   430.000000     0.002326   456.345906     0.000000 
 108.451000   430.000000     0.002326   456.309791     0.000000 
 108.459000   480.000000     0.002083   456.274422     0.000000 
 108.467000   439.000000     0.002278   456.239780     0.000000 
 108.475000   423.000000     0.002364   456.205845     0.000000 
 108.483000   464.000000     0.002155   456.172599     0.000000 
 108.491000   440.000000     0.002273   456.140023     0.000000 
 108.499000   460.000000     0.002174   456.108101     0.000000 
 108.507000   503.000000     0.001988   456.076817     0.000000 
 108.515000   454.000000     0.002203   456.046153     0.000000 
 108.523000   479.000000     0.002088   456.016095     0.000000 
 108.531000   459.000000     0.002179   455.986628     0.000000 
 108.539000   454.000000     0.002203   455.957737     0.000000 
 108.547000   446.000000     0.002242   455.929409     0.000000 
 108.555000   409.000000     0.002445   455.901630     0.000000 
 108.563000   412.000000     0.002427   455.874387     0.000000 
 108.571000   455.000000     0.002198   455.847668     0.000000 
 108.579000   471.000000     0.002123   455.821461     0.000000 
 108.587000   447.000000     0.002237   455.795754     0.000000 
 108.595000   459.000000     0.002179   455.770535     0.000000 
 108.603000   488.000000     0.002049   455.745795     0.000000 
 108.611000   453.000000     0.002208   455.721521     0.000000 
 108.619000   449.000000     0.002227   455.697704     0.000000 
 108.627000   462.000000     0.002165   455.674334     0.000000 
 108.635000   439.000000     0.002278   455.651401     0.000000 
 108.643000   479.000000     0.002088   455.628897     0.000000 
 108.651000   456.000000     0.002193   455.606811     0.000000 
 108.659000   485.000000     0.002062   455.585136     0.000000 
 108.667000   414.000000     0.002415   455.563862     0.000000 
 108.675000   430.000000     0.002326   455.542982     0.000000 
 108.683000   434.000000     0.002304   455.522487     0.000000 
 108.691000   440.000000     0.002273   454.988857     0.000000 
 108.699000   499.000000     0.002004   454.971178     0.000000 
 108.707000   531.000000     0.001883   454.953849     0.000000 
 108.715000   483.000000     0.002070   454.936863     0.000000 
 108.723000   489.000000     0.002045   454.920215     0.000000 
 108.731000   472.000000     0.002119   454.903897     0.000000 
 108.739000   449.000000     0.002227   454.887902     0.000000 
 108.747000   447.000000     0.002237   454.872226     0.000000 
 108.755000   446.000000     0.002242   454.856861     0.000000 
 108.763000   458.000000     0.002183   454.841802     0.000000 
 108.771000   475.000000     0.002105   454.827043     0.000000 
 108.779000   460.000000     0.002174   454.812579     0.000000 
 108.787000   440.000000     0.002273   454.798404     0.000000 
 108.795000   444.000000     0.002252   454.784514     0.000000 
 108.803000   445.000000     0.002247   454.770902     0.000000 
 108.811000   452.000000     0.002212   454.757564     0.000000 
 108.819000   457.000000     0.002188   454.744496     0.000000 
 108.827000   466.000000     0.002146   454.731693     0.000000 
 108.835000   459.000000     0.002179   454.719149     0.000000 
 108.843000   509.000000     0.001965   454.706862     0.000000 
 108.851000   455.000000     0.002198   454.694826     0.000000 
 108.859000   478.000000     0.002092   454.683037     0.000000 
 108.867000   418.000000     0.002392   454.671491     0.000000 
 108.875000   488.000000     0.002049   454.660185     0.000000 
 108.883000   453.000000     0.002208   454.649114     0.000000 
 108.891000   445.000000     0.002247   454.638274     0.000000 
 108.899000   442.000000     0.002262   454.627663     0.000000 
 108.907000   452.000000     0.002212   454.617276     0.000000 
 108.915000   442.000000     0.002262   454.607111     0.000000 
 108.923000   400.000000     0.002500   454.597163     0.000000 
 108.931000   438.000000     0.002283   454.587429     0.000000 
 108.939000   457.000000     0.002188   454.577907     0.000000 
 108.947000   482.000000     0.002075   454.568592     0.000000 
 108.955000   480.000000     0.002083   454.559483     0.000000 
 108.963000   433.000000     0.002309   454.550576     0.000000 
 108.971000   423.000000     0.002364   454.541868     0.000000 
 108.979000   449.000000     0.002227   454.533357     0.000000 
 108.987000   446.000000     0.002242   454.525040     0.000000 
 108.995000   433.000000     0.002309   454.516913     0.000000 
 109.003000   483.000000     0.002070   454.508975     0.000000 
 109.011000   445.000000     0.002247   454.501223     0.000000 
 109.019000   435.000000     0.002299   454.493655     0.000000 
 109.027000   442.000000     0.002262   454.486267     0.000000 
 109.035000   428.000000     0.002336   454.479059     0.000000 
 109.043000   446.000000     0.002242   454.472027     0.000000 
 109.051000   425.000000     0.002353   454.465169     0.000000 
 109.059000   478.000000     0.002092   454.458484     0.000000 
 109.067000   510.000000     0.001961   454.451968     0.000000 
 109.075000   483.000000     0.002070   454.445621     0.000000 
 109.083000   479.000000     0.002088   454.439439     0.000000 
 109.091000   479.000000     0.002088   454.433422     0.000000 
 109.099000   418.000000     0.002392   454.427567     0.000000 
 109.107000   411.000000     0.002433   454.421872     0.000000 
 109.115000   457.000000     0.002188   454.416336     0.000000 
 109.123000   460.000000     0.002174   454.410956     0.000000 
 109.131000   452.000000     0.002212   454.405732     0.000000 
 109.139000   458.000000     0.002183   454.400661     0.000000 
 109.147000   447.000000     0.002237   454.395742     0.000000 
 109.155000   447.000000     0.002237   454.390973     0.000000 
 109.163000   452.000000     0.002212   454.386353     0.000000 
 109.171000   445.000000     0.002247   454.381880     0.000000 
 109.179000   469.000000     0.002132   454.377553     0.000000 
 109.187000   437.000000     0.002288   454.373371     0.000000 
 109.195000   444.000000     0.002252   454.369331     0.000000 
 109.203000   489.000000     0.002045   454.365433     0.000000 
 109.211000   446.000000     0.002242   454.361676     0.000000 
 109.219000   453.000000     0.002208   454.358057     0.000000 
 109.227000   389.000000     0.002571   454.354577     0.000000 
 109.235000   436.000000     0.002294   454.351233     0.000000 
 109.243000   476.000000     0.002101   454.348025     0.000000 
 109.251000   446.000000     0.002242   454.344951     0.000000 
 109.259000   380.000000     0.002632   454.342010     0.000000 
 109.267000   469.000000     0.002132   454.339202     0.000000 
 109.275000   468.000000     0.002137   454.336525     0.000000 
 109.283000   461.000000     0.002169   454.333979     0.000000 
 109.291000   505.000000     0.001980   454.331562     0.000000 
 109.299000   480.000000     0.002083   454.329273     0.000000 
 109.307000   474.000000     0.002110   454.327111     0.000000 
 109.315000   487.000000     0.002053   454.325076     0.000000 
 109.323000   481.000000     0.002079   454.323167     0.000000 
 109.331000   467.000000     0.002141   454.321383     0.000000 
 109.339000   465.000000     0.002151   454.319723     0.000000 
 109.347000   432.000000     0.002315   454.318187     0.000000 
 109.355000   437.000000     0.002288   454.316773     0.000000 
 109.363000   461.000000     0.002169   454.315481     0.000000 
 109.371000   444.000000     0.002252   454.314310     0.000000 
 109.379000   462.000000     0.002165   454.313260     0.000000 
 109.387000   495.000000     0.002020   454.312330     0.000000 
 109.395000   501.000000     0.001996   454.311519     0.000000 
 109.403000   457.000000     0.002188   454.310827     0.000000 
 109.411000   494.000000     0.002024   454.310254     0.000000 
 109.419000   476.000000     0.002101   454.309798     0.000000 
 109.427000   441.000000     0.002268   454.309459     0.000000 
 109.435000   491.000000     0.002037   454.309237     0.000000 
 109.443000   401.000000     0.002494   454.309131     0.000000 
 109.451000   482.000000     0.002075   454.309141     0.000000 
 109.459000   468.000000     0.002137   454.309266     0.000000 
 109.467000   467.000000     0.002141   454.309507     0.000000 
 109.475000   471.000000     0.002123   454.309862     0.000000 
 109.483000   471.000000     0.002123   454.310331     0.000000 
 109.491000   442.000000     0.002262   454.310914     0.000000 
 109.499000   484.000000     0.002066   454.329714     0.000000 
 109.507000   499.000000     0.002004   454.330581     0.000000 
 109.515000   455.000000     0.002198   454.331562     0.000000 
 109.523000   429.000000     0.002331   454.332656     0.000000 
 109.531000   442.000000     0.002262   454.333862     0.000000 
 109.539000   464.000000     0.002155   454.335181     0.000000 
 109.547000   467.000000     0.002141   454.336613     0.000000 
 109.555000   437.000000     0.002288   454.338157     0.000000 
 109.563000   412.000000     0.002427   454.339814     0.000000 
 109.571000   469.000000     0.002132   454.341583     0.000000 
 109.579000   431.000000     0.002320   454.343464     0.000000 
 109.587000   442.000000     0.002262   454.345457     0.000000 
 109.595000   442.000000     0.002262   454.347562     0.000000 
 109.603000   421.000000     0.002375   454.349778     0.000000 
 109.611000   405.000000     0.002469   454.352107     0.000000 
 109.619000   474.000000     0.002110   454.354548     0.000000 
 109.627000   505.000000     0.001980   454.357101     0.000000 
 109.635000   421.000000     0.002375   454.359766     0.000000 
 109.643000   412.000000     0.002427   454.362543     0.000000 
 109.651000   443.000000     0.002257   454.365432     0.000000 
 109.659000   462.000000     0.002165   454.368434     0.000000 
 109.667000   446.000000     0.002242   454.371548     0.000000 
 109.675000   454.000000     0.002203   454.374775     0.000000 
 109.683000   424.000000     0.002358   454.378148     0.000000 
 109.691000   389.000000     0.002571   454.381601     0.000000 
 109.699000   397.000000     0.002519   454.385167     0.000000 
 109.707000   424.000000     0.002358   454.388846     0.000000 
 109.715000   434.000000     0.002304   454.392640     0.000000 
 109.723000   419.000000     0.002387   454.396547     0.000000 
 109.731000   439.000000     0.002278   454.400569     0.000000 
 109.739000   470.000000     0.002128   454.404705     0.000000 
 109.747000   425.000000     0.002353   454.408957     0.000000 
 109.755000   416.000000     0.002404   454.413324     0.000000 
 109.763000   471.000000     0.002123   454.417807     0.000000 
 109.771000   478.000000     0.002092   454.422405     0.000000 
 109.779000   425.000000     0.002353   454.427121     0.000000 
 109.787000   407.000000     0.002457   454.431954     0.000000 
 109.795000   410.000000     0.002439   454.436904     0.000000 
 109.803000   464.000000     0.002155   454.441972     0.000000 
 109.811000   430.000000     0.002326   454.447159     0.000000 
 109.819000   433.000000     0.002309   454.452465     0.000000 
 109.827000   419.000000     0.002387   454.457891     0.000000 
 109.835000   443.000000     0.002257   454.463437     0.000000 
 109.843000   482.000000     0.002075   454.469104     0.000000 
 109.851000   480.000000     0.002083   454.474893     0.000000 
 109.859000   485.000000     0.002062   454.480803     0.000000 
 109.867000   434.000000     0.002304   454.486837     0.000000 
 109.875000   416.000000     0.002404   454.492994     0.000000 
 109.883000   436.000000     0.002294   454.499276     0.000000 
 109.891000   448.000000     0.002232   454.505683     0.000000 
 109.899000   443.000000     0.002257   454.512215     0.000000 
 109.907000   427.000000     0.002342   454.518874     0.000000 
 109.915000   450.000000     0.002222   454.525661     0.000000 
 109.923000   499.000000     0.002004   454.532576     0.000000 
 109.931000   489.000000     0.002045   454.539621     0.000000 
 109.939000   461.000000     0.002169   454.546795     0.000000 
 109.947000   439.000000     0.002278   454.554101     0.000000 
 109.955000   480.000000     0.002083   454.561538     0.000000 
 109.963000   456.000000     0.002193   454.569109     0.000000 
 109.971000   435.000000     0.002299   454.576814     0.000000 
 109.979000   474.000000     0.002110   454.584654     0.000000 
 109.987000   507.000000     0.001972   454.592630     0.000000 
 109.995000   462.000000     0.002165   454.600744     0.000000 
 110.003000   427.000000     0.002342   454.608996     0.000000 
 110.011000   479.000000     0.002088   454.617387     0.000000 
 110.019000   452.000000     0.002212   454.625919     0.000000 
 110.027000   447.000000     0.002237   454.634594     0.000000 
 110.035000   432.000000     0.002315   454.643411     0.000000 
 110.043000   481.000000     0.002079   454.652374     0.000000 
 110.051000   456.000000     0.002193   454.661482     0.000000 
 110.059000   441.000000     0.002268   454.670737     0.000000 
 110.067000   446.000000     0.002242   454.680141     0.000000 
 110.075000   476.000000     0.002101   454.689695     0.000000 
 110.083000   475.000000     0.002105   454.699401     0.000000 
 110.091000   452.000000     0.002212   454.709260     0.000000 
 110.099000   464.000000     0.002155   454.719273     0.000000 
 110.107000   473.000000     0.002114   454.729442     0.000000 
 110.115000   455.000000     0.002198   454.739770     0.000000 
 110.123000   476.000000     0.002101   454.750256     0.000000 
 110.131000   479.000000     0.002088   454.760904     0.000000 
 110.139000   424.000000     0.002358   454.771714     0.000000 
 110.147000   440.000000     0.002273   454.782689     0.000000 
 110.155000   455.000000     0.002198   454.793830     0.000000 
 110.163000   518.000000     0.001931   454.805139     0.000000 
 110.171000   455.000000     0.002198   454.816619     0.000000 
 110.179000   431.000000     0.002320   454.828270     0.000000 
 110.187000   462.000000     0.002165   454.840095     0.000000 
 110.195000   482.000000     0.002075   454.852097     0.000000 
 110.203000   481.000000     0.002079   454.864276     0.000000 
 110.211000   494.000000     0.002024   454.876635     0.000000 
 110.219000   469.000000     0.002132   454.889177     0.000000 
 110.227000   414.000000     0.002415   454.901904     0.000000 
 110.235000   436.000000     0.002294   454.914817     0.000000 
 110.243000   454.000000     0.002203   454.927919     0.000000 
 110.251000   454.000000     0.002203   454.941213     0.000000 
 110.259000   448.000000     0.002232   454.954700     0.000000 
 110.267000   399.000000     0.002506   454.968384     0.000000 
 110.275000   432.000000     0.002315   454.982267     0.000000 
 110.283000   478.000000     0.002092   454.996351     0.000000 
 110.291000   465.000000     0.002151   455.010639     0.000000 
 110.299000   478.000000     0.002092   455.025135     0.000000 
 110.307000   486.000000     0.002058   455.039839     0.000000 
 110.315000   515.000000     0.001942   455.054756     0.000000 
 110.323000   467.000000     0.002141   455.069889     0.000000 
 110.331000   401.000000     0.002494   455.085239     0.000000 
 110.339000   417.000000     0.002398   455.100811     0.000000 
 110.347000   492.000000     0.002033   455.116607     0.000000 
 110.355000   470.000000     0.002128   455.132630     0.000000 
 110.363000   453.000000     0.002208   455.148885     0.000000 
 110.371000   478.000000     0.002092   455.165373     0.000000 
 110.379000   413.000000     0.002421   455.182099     0.000000 
 110.387000   396.000000     0.002525   455.199065     0.000000 
 110.395000   431.000000     0.002320   455.216276     0.000000 
 110.403000   475.000000     0.002105   455.233735     0.000000 
 110.411000   442.000000     0.002262   455.251445     0.000000 
 110.419000   444.000000     0.002252   455.269411     0.000000 
 110.427000   459.000000     0.002179   455.287636     0.000000 
 110.435000   445.000000     0.002247   455.306124     0.000000 
 110.443000   459.000000     0.002179   455.324880     0.000000 
 110.451000   415.000000     0.002410   455.343907     0.000000 
 110.459000   432.000000     0.002315   455.363210     0.000000 
 110.467000   471.000000     0.002123   455.382793     0.000000 
 110.475000   474.000000     0.002110   455.402660     0.000000 
 110.483000   447.000000     0.002237   455.422816     0.000000 
 110.491000   433.000000     0.002309   455.443266     0.000000 
 110.499000   455.000000     0.002198   455.464014     0.000000 
 110.507000   450.000000     0.002222   455.485065     0.000000 
 110.515000   434.000000     0.002304   455.506424     0.000000 
 110.523000   481.000000     0.002079   455.528097     0.000000 
 110.531000   402.000000     0.002488   455.550088     0.000000 
 110.539000   420.000000     0.002381   455.572402     0.000000 
 110.547000   430.000000     0.002326   455.595046     0.000000 
 110.555000   438.000000     0.002283   455.618025     0.000000 
 110.563000   466.000000     0.002146   455.641344     0.000000 
 110.571000   430.000000     0.002326   455.665010     0.000000 
 110.579000   422.000000     0.002370   455.689028     0.000000 
 110.587000   450.000000     0.002222   456.013309     0.000000 
 110.595000   443.000000     0.002257   456.038961     0.000000 
 110.603000   466.000000     0.002146   455.758234     0.000000 
 110.611000   407.000000     0.002457   455.785823     0.000000 
 110.619000   396.000000     0.002525   455.813794     0.000000 
 110.627000   401.000000     0.002494   455.842154     0.000000 
 110.635000   444.000000     0.002252   455.870910     0.000000 
 110.643000   464.000000     0.002155   455.900069     0.000000 
 110.651000   468.000000     0.002137   455.929640     0.000000 
 110.659000   450.000000     0.002222   455.959630     0.000000 
 110.667000   425.000000     0.002353   455.990046     0.000000 
 110.675000   476.000000     0.002101   456.020897     0.000000 
 110.683000   481.000000     0.002079   456.052191     0.000000 
 110.691000   438.000000     0.002283   456.083936     0.000000 
 110.699000   441.000000     0.002268   456.116142     0.000000 
 110.707000   428.000000     0.002336   456.148817     0.000000 
 110.715000   478.000000     0.002092   456.181970     0.000000 
 110.723000   439.000000     0.002278   456.215612     0.000000 
 110.731000   454.000000     0.002203   456.249750     0.000000 
 110.739000   520.000000     0.001923   456.284396     0.000000 
 110.747000   463.000000     0.002160   456.319560     0.000000 
 110.755000   434.000000     0.002304   456.355252     0.000000 
 110.763000   465.000000     0.002151   456.391482     0.000000 
 110.771000   505.000000     0.001980   456.428262     0.000000 
 110.779000   485.000000     0.002062   456.465602     0.000000 
 110.787000   463.000000     0.002160   456.503515     0.000000 
 110.795000   458.000000     0.002183   456.542013     0.000000 
 110.803000   487.000000     0.002053   456.581106     0.000000 
 110.811000   444.000000     0.002252   456.620809     0.000000 
 110.819000   447.000000     0.002237   456.661134     0.000000 
 110.827000   458.000000     0.002183   456.702094     0.000000 
 110.835000   470.000000     0.002128   456.743702     0.000000 
 110.843000   469.000000     0.002132   456.785972     0.000000 
 110.851000   432.000000     0.002315   456.828920     0.000000 
 110.859000   458.000000     0.002183   456.872559     0.000000 
 110.867000   478.000000     0.002092   456.883688     0.000000 
 110.875000   446.000000     0.002242   456.928883     0.000000 
 110.883000   443.000000     0.002257   456.974816     0.000000 
 110.891000   465.000000     0.002151   457.021502     0.000000 
 110.899000   487.000000     0.002053   457.068960     0.000000 
 110.907000   453.000000     0.002208   456.984801     0.000000 
 110.915000   454.000000     0.002203   457.034359     0.000000 
 110.923000   416.000000     0.002404   457.084738     0.000000 
 110.931000   443.000000     0.002257   457.135958     0.000000 
 110.939000   470.000000     0.002128   457.188038     0.000000 
 110.947000   502.000000     0.001992   457.240998     0.000000 
 110.955000   525.000000     0.001905   457.294860     0.000000 
 110.963000   479.000000     0.002088   457.349643     0.000000 
 110.971000   435.000000     0.002299   457.405372     0.000000 
 110.979000   430.000000     0.002326   457.462067     0.000000 
 110.987000   463.000000     0.002160   457.519753     0.000000 
 110.995000   472.000000     0.002119   457.578452     0.000000 
 111.003000   461.000000     0.002169   457.638191     0.000000 
 111.011000   471.000000     0.002123   457.698995     0.000000 
 111.019000   462.000000     0.002165   457.760890     0.000000 
 111.027000   474.000000     0.002110   457.823902     0.000000 
 111.035000   500.000000     0.002000   457.888061     0.000000 
 111.043000   486.000000     0.002058   457.953394     0.000000 
 111.051000   448.000000     0.002232   458.019933     0.000000 
 111.059000   401.000000     0.002494   458.087707     0.000000 
 111.067000   401.000000     0.002494   458.156748     0.000000 
 111.075000   450.000000     0.002222   458.227089     0.000000 
 111.083000   474.000000     0.002110   458.298763     0.000000 
 111.091000   430.000000     0.002326   458.371807     0.000000 
 111.099000   392.000000     0.002551   458.446255     0.000000 
 111.107000   461.000000     0.002169   458.522146     0.000000 
 111.115000   465.000000     0.002151   458.599517     0.000000 
 111.123000   440.000000     0.002273   458.678409     0.000000 
 111.131000   477.000000     0.002096   458.758863     0.000000 
 111.139000   446.000000     0.002242   458.840921     0.000000 
 111.147000   444.000000     0.002252   458.924627     0.000000 
 111.155000   451.000000     0.002217   459.010028     0.000000 
 111.163000   447.000000     0.002237   459.097169     0.000000 
 111.171000   436.000000     0.002294   459.186101     0.000000 
 111.179000   456.000000     0.002193   459.276873     0.000000 
 111.187000   439.000000     0.002278   459.369538     0.000000 
 111.195000   450.000000     0.002222   459.464151     0.000000 
 111.203000   470.000000     0.002128   459.560766     0.000000 
 111.211000   494.000000     0.002024   459.659443     0.000000 
 111.219000   485.000000     0.002062   459.760242     0.000000 
 111.227000   491.000000     0.002037   459.863225     0.000000 
 111.235000   490.000000     0.002041   459.968458     0.000000 
 111.243000   448.000000     0.002232   460.076007     0.000000 
 111.251000   478.000000     0.002092   460.185943     0.000000 
 111.259000   472.000000     0.002119   460.298337     0.000000 
 111.267000   455.000000     0.002198   460.413266     0.000000 
 111.275000   442.000000     0.002262   460.530806     0.000000 
 111.283000   459.000000     0.002179   460.651040     0.000000 
 111.291000   463.000000     0.002160   460.774052     0.000000 
 111.299000   415.000000     0.002410   460.899929     0.000000 
 111.307000   448.000000     0.002232   461.028762     0.000000 
 111.315000   445.000000     0.002247   461.160646     0.000000 
 111.323000   513.000000     0.001949   461.295680     0.000000 
 111.331000   468.000000     0.002137   461.433965     0.000000 
 111.339000   474.000000     0.002110   461.575609     0.000000 
 111.347000   462.000000     0.002165   461.720723     0.000000 
 111.355000   437.000000     0.002288   461.869422     0.000000 
 111.363000   391.000000     0.002558   462.021827     0.000000 
 111.371000   403.000000     0.002481   462.178063     0.000000 
 111.379000   444.000000     0.002252   462.338262     0.000000 
 111.387000   485.000000     0.002062   462.502559     0.000000 
 111.395000   468.000000     0.002137   462.671097     0.000000 
 111.403000   438.000000     0.002283   462.844025     0.000000 
 111.411000   432.000000     0.002315   463.021497     0.000000 
 111.419000   451.000000     0.002217   463.203676     0.000000 
 111.427000   482.000000     0.002075   463.390731     0.000000 
 111.435000   450.000000     0.002222   463.582838     0.000000 
 111.443000   445.000000     0.002247   463.780182     0.000000 
 111.451000   440.000000     0.002273   463.982956     0.000000 
 111.459000   461.000000     0.002169   464.191363     0.000000 
 111.467000   483.000000     0.002070   464.405613     0.000000 
 111.475000   505.000000     0.001980   464.625929     0.000000 
 111.483000   452.000000     0.002212   464.852543     0.000000 
 111.491000   485.000000     0.002062   465.085698     0.000000 
 111.499000   414.000000     0.002415   465.325649     0.000000 
 111.507000   457.000000     0.002188   465.572664     0.000000 
 111.515000   496.000000     0.002016   465.827024     0.000000 
 111.523000   462.000000     0.002165   466.089025     0.000000 
 111.531000   448.000000     0.002232   466.358978     0.000000 
 111.539000   464.000000     0.002155   466.637209     0.000000 
 111.547000   467.000000     0.002141   466.924064     0.000000 
 111.555000   466.000000     0.002146   467.219906     0.000000 
 111.563000   478.000000     0.002092   467.525118     0.000000 
 111.571000   473.000000     0.002114   467.840105     0.000000 
 111.579000   461.000000     0.002169   468.165298     0.000000 
 111.587000   464.000000     0.002155   468.501152     0.000000 
 111.595000   448.000000     0.002232   468.848148     0.000000 
 111.603000   467.000000     0.002141   469.206802     0.000000 
 111.611000   497.000000     0.002012   469.577661     0.000000 
 111.619000   490.000000     0.002041   469.961310     0.000000 
 111.627000   467.000000     0.002141   470.358377     0.000000 
 111.635000   465.000000     0.002151   470.769533     0.000000 
 111.643000   427.000000     0.002342   471.261365     0.000000 
 111.651000   435.000000     0.002299   471.703124     0.000000 
 111.659000   482.000000     0.002075   472.161325     0.000000 
 111.667000   435.000000     0.002299   472.636885     0.000000 
 111.675000   443.000000     0.002257   473.130806     0.000000 
 111.683000   473.000000     0.002114   473.644179     0.000000 
 111.691000   483.000000     0.002070   474.178202     0.000000 
 111.699000   466.000000     0.002146   474.729373     0.000000 
 111.707000   441.000000     0.002268   475.308789     0.000000 
 111.715000   503.000000     0.001988   475.913215     0.000000 
 111.723000   439.000000     0.002278   476.544421     0.000000 
 111.731000   448.000000     0.002232   477.204372     0.000000 
 111.739000   429.000000     0.002331   477.895246     0.000000 
 111.747000   432.000000     0.002315   478.619470     0.000000 
 111.755000   448.000000     0.002232   479.379744     0.000000 
 111.763000   442.000000     0.002262   480.179078     0.000000 
 111.771000   452.000000     0.002212   481.020823     0.000000 
 111.779000   489.000000     0.002045   481.908716     0.000000 
 111.787000   496.000000     0.002016   482.846914     0.000000 
 111.795000   488.000000     0.002049   483.840048     0.000000 
 111.803000   477.000000     0.002096   484.893257     0.000000 
 111.811000   479.000000     0.002088   486.012247     0.000000 
 111.819000   504.000000     0.001984   487.203334     0.000000 
 111.827000   501.000000     0.001996   488.431494     0.000000 
 111.835000   502.000000     0.001992   489.788577     0.000000 
 111.843000   488.000000     0.002049   491.240874     0.000000 
 111.851000   449.000000     0.002227   492.797639     0.000000 
 111.859000   486.000000     0.002058   494.468977     0.000000 
 111.867000   452.000000     0.002212   496.265879     0.000000 
 111.875000   515.000000     0.001942   498.200251     0.000000 
 111.883000   465.000000     0.002151   500.284941     0.000000 
 111.891000   476.000000     0.002101   502.533749     0.000000 
 111.899000   515.000000     0.001942   504.967476     0.000000 
 111.907000   456.000000     0.002193   507.589733     0.000000 
 111.915000   497.000000     0.002012   510.423152     0.000000 
 111.923000   514.000000     0.001946   513.485203     0.000000 
 111.931000   464.000000     0.002155   516.794152     0.000000 
 111.939000   478.000000     0.002092   520.368980     0.000000 
 111.947000   501.000000     0.001996   524.229275     0.000000 
 111.955000   491.000000     0.002037   528.395101     0.000000 
 111.963000   492.000000     0.002033   532.886846     0.000000 
 111.971000   508.000000     0.001969   537.725042     0.000000 
 111.979000   505.000000     0.001980   542.930166     0.000000 
 111.987000   482.000000     0.002075   548.522413     0.000000 
 111.995000   476.000000     0.002101   554.521445     0.000000 
 112.003000   502.000000     0.001992   560.946119     0.000000 
 112.011000   521.000000     0.001919   567.814194     0.000000 
 112.019000   497.000000     0.002012   575.142008     0.000000 
 112.027000   488.000000     0.002049   582.944139     0.000000 
 112.035000   514.000000     0.001946   591.233042     0.000000 
 112.043000   508.000000     0.001969   600.018653     0.000000 
 112.051000   530.000000     0.001887   609.307983     0.000000 
 112.059000   535.000000     0.001869   619.104652     0.000000 
 112.067000   562.000000     0.001779   629.408415     0.000000 
 112.075000   584.000000     0.001712   640.214618     0.000000 
 112.083000   553.000000     0.001808   651.513630     0.000000 
 112.091000   566.000000     0.001767   663.290170     0.000000 
 112.099000   599.000000     0.001669   675.522607     0.000000 
 112.107000   576.000000     0.001736   688.182149     0.000000 
 112.115000   630.000000     0.001587   701.231964     0.000000 
 112.123000   642.000000     0.001558   714.626205     0.000000 
 112.131000   614.000000     0.001629   728.308986     0.000000 
 112.139000   649.000000     0.001541   742.213307     0.000000 
 112.147000   709.000000     0.001410   756.260008     0.000000 
 112.155000   748.000000     0.001337   770.356723     0.000000 
 112.163000   773.000000     0.001294   784.397179     0.000000 
 112.171000   787.000000     0.001271   798.260754     0.000000 
 112.179000   844.000000     0.001185   811.812504     0.000000 
 112.187000   847.000000     0.001181   824.903904     0.000000 
 112.195000   901.000000     0.001110   837.450025     0.000000 
 112.203000   969.000000     0.001032   849.130273     0.000000 
 112.211000   970.000000     0.001031   859.844807     0.000000 
 112.219000  1066.000000     0.000938   869.418106     0.000000 
 112.227000  1159.000000     0.000863   877.680422     0.000000 
 112.235000  1212.000000     0.000825   884.474759     0.000000 
 112.243000  1290.000000     0.000775   889.664153     0.000000 
 112.251000  1387.000000     0.000721   893.138818     0.000000 
 112.259000  1436.000000     0.000696   894.822322     0.000000 
 112.267000  1490.000000     0.000671   894.676221     0.000000 
 112.275000  1563.000000     0.000640   892.702555     0.000000 
 112.283000  1605.000000     0.000623   888.943913     0.000000 
 112.291000  1521.000000     0.000657   883.481005     0.000000 
 112.299000  1441.000000     0.000694   876.428047     0.000000 
 112.307000  1390.000000     0.000719   867.926465     0.000000 
 112.315000  1325.000000     0.000755   858.137556     0.000000 
 112.323000  1241.000000     0.000806   847.234950     0.000000 
 112.331000  1163.000000     0.000860   835.397377     0.000000 
 112.339000  1085.000000     0.000922   822.802310     0.000000 
 112.347000   983.000000     0.001017   809.620805     0.000000 
 112.355000   929.000000     0.001076   796.013641     0.000000 
 112.363000   870.000000     0.001149   782.128676     0.000000 
 112.371000   814.000000     0.001229   768.099398     0.000000 
 112.379000   776.000000     0.001289   754.044344     0.000000 
 112.387000   714.000000     0.001401   740.067261     0.000000 
 112.395000   678.000000     0.001475   726.257697     0.000000 
 112.403000   670.000000     0.001493   712.691978     0.000000 
 112.411000   651.000000     0.001536   699.452420     0.000000 
 112.419000   613.000000     0.001631   686.555972     0.000000 
 112.427000   563.000000     0.001776   674.064043     0.000000 
 112.435000   523.000000     0.001912   662.011160     0.000000 
 112.443000   533.000000     0.001876   650.424035     0.000000 
 112.451000   490.000000     0.002041   639.322448     0.000000 
 112.459000   496.000000     0.002016   628.720048     0.000000 
 112.467000   495.000000     0.002020   618.625045     0.000000 
 112.475000   499.000000     0.002004   609.040864     0.000000 
 112.483000   498.000000     0.002008   599.966693     0.000000 
 112.491000   471.000000     0.002123   591.398014     0.000000 
 112.499000   464.000000     0.002155   583.327071     0.000000 
 112.507000   465.000000     0.002151   575.743306     0.000000 
 112.515000   467.000000     0.002141   568.633773     0.000000 
 112.523000   474.000000     0.002110   561.983513     0.000000 
 112.531000   472.000000     0.002119   555.775913     0.000000 
 112.539000   474.000000     0.002110   549.993045     0.000000 
 112.547000   476.000000     0.002101   544.615972     0.000000 
 112.555000   477.000000     0.002096   539.625047     0.000000 
 112.563000   498.000000     0.002008   535.000179     0.000000 
 112.571000   469.000000     0.002132   530.721077     0.000000 
 112.579000   461.000000     0.002169   526.767480     0.000000 
 112.587000   482.000000     0.002075   523.119350     0.000000 
 112.595000   502.000000     0.001992   519.757053     0.000000 
 112.603000   442.000000     0.002262   516.661510     0.000000 
 112.611000   476.000000     0.002101   513.814327     0.000000 
 112.619000   468.000000     0.002137   511.197902     0.000000 
 112.627000   472.000000     0.002119   508.795515     0.000000 
 112.635000   501.000000     0.001996   506.591390     0.000000 
 112.643000   469.000000     0.002132   504.570747     0.000000 
 112.651000   474.000000     0.002110   502.719833     0.000000 
 112.659000   494.000000     0.002024   501.025939     0.000000 
 112.667000   477.000000     0.002096   499.477403     0.000000 
 112.675000   494.000000     0.002024   498.063606     0.000000 
 112.683000   474.000000     0.002110   496.774949     0.000000 
 112.691000   507.000000     0.001972   495.602834     0.000000 
 112.699000   463.000000     0.002160   494.539629     0.000000 
 112.707000   431.000000     0.002320   493.578631     0.000000 
 112.715000   488.000000     0.002049   492.714027     0.000000 
 112.723000   534.000000     0.001873   491.940852     0.000000 
 112.731000   516.000000     0.001938   491.254939     0.000000 
 112.739000   501.000000     0.001996   490.652875     0.000000 
 112.747000   490.000000     0.002041   490.131955     0.000000 
 112.755000   441.000000     0.002268   489.690129     0.000000 
 112.763000   456.000000     0.002193   489.325960     0.000000 
 112.771000   443.000000     0.002257   489.038570     0.000000 
 112.779000   448.000000     0.002232   488.827595     0.000000 
 112.787000   504.000000     0.001984   488.693136     0.000000 
 112.795000   519.000000     0.001927   488.635707     0.000000 
 112.803000   521.000000     0.001919   488.656191     0.000000 
 112.811000   576.000000     0.001736   488.755785     0.000000 
 112.819000   511.000000     0.001957   488.935951     0.000000 
 112.827000   485.000000     0.002062   489.198364     0.000000 
 112.835000   472.000000     0.002119   489.544859     0.000000 
 112.843000   475.000000     0.002105   489.977376     0.000000 
 112.851000   468.000000     0.002137   490.497905     0.000000 
 112.859000   501.000000     0.001996   491.108426     0.000000 
 112.867000   483.000000     0.002070   491.810851     0.000000 
 112.875000   526.000000     0.001901   492.606966     0.000000 
 112.883000   524.000000     0.001908   493.498362     0.000000 
 112.891000   481.000000     0.002079   494.486378     0.000000 
 112.899000   463.000000     0.002160   495.572026     0.000000 
 112.907000   476.000000     0.002101   496.755927     0.000000 
 112.915000   490.000000     0.002041   498.038236     0.000000 
 112.923000   486.000000     0.002058   499.418561     0.000000 
 112.931000   489.000000     0.002045   500.895887     0.000000 
 112.939000   479.000000     0.002088   502.468479     0.000000 
 112.947000   462.000000     0.002165   504.133786     0.000000 
 112.955000   473.000000     0.002114   505.888333     0.000000 
 112.963000   493.000000     0.002028   507.727601     0.000000 
 112.971000   492.000000     0.002033   509.645889     0.000000 
 112.979000   497.000000     0.002012   511.636168     0.000000 
 112.987000   488.000000     0.002049   513.689917     0.000000 
 112.995000   469.000000     0.002132   515.796949     0.000000 
 113.003000   454.000000     0.002203   517.945227     0.000000 
 113.011000   484.000000     0.002066   520.120684     0.000000 
 113.019000   483.000000     0.002070   522.307059     0.000000 
 113.027000   495.000000     0.002020   524.485766     0.000000 
 113.035000   474.000000     0.002110   526.635816     0.000000 
 113.043000   470.000000     0.002128   528.733840     0.000000 
 113.051000   484.000000     0.002066   530.754219     0.000000 
 113.059000   471.000000     0.002123   532.669386     0.000000 
 113.067000   470.000000     0.002128   534.450301     0.000000 
 113.075000   491.000000     0.002037   536.067139     0.000000 
 113.083000   478.000000     0.002092   537.490184     0.000000 
 113.091000   491.000000     0.002037   538.690891     0.000000 
 113.099000   530.000000     0.001887   539.643086     0.000000 
 113.107000   550.000000     0.001818   540.324199     0.000000 
 113.115000   592.000000     0.001689   540.716429     0.000000 
 113.123000   619.000000     0.001616   540.807737     0.000000 
 113.131000   666.000000     0.001502   540.592537     0.000000 
 113.139000   661.000000     0.001513   540.072023     0.000000 
 113.147000   637.000000     0.001570   539.254097     0.000000 
 113.155000   600.000000     0.001667   538.152871     0.000000 
 113.163000   580.000000     0.001724   536.787857     0.000000 
 113.171000   574.000000     0.001742   535.182889     0.000000 
 113.179000   546.000000     0.001832   533.364913     0.000000 
 113.187000   535.000000     0.001869   531.362755     0.000000 
 113.195000   524.000000     0.001908   529.205974     0.000000 
 113.203000   520.000000     0.001923   526.923849     0.000000 
 113.211000   484.000000     0.002066   524.544575     0.000000 
 113.219000   479.000000     0.002088   522.094652     0.000000 
 113.227000   486.000000     0.002058   519.598486     0.000000 
 113.235000   514.000000     0.001946   517.078155     0.000000 
 113.243000   474.000000     0.002110   514.553326     0.000000 
 113.251000   521.000000     0.001919   512.041271     0.000000 
 113.259000   533.000000     0.001876   509.556976     0.000000 
 113.267000   506.000000     0.001976   507.113277     0.000000 
 113.275000   481.000000     0.002079   504.721040     0.000000 
 113.283000   495.000000     0.002020   502.389335     0.000000 
 113.291000   494.000000     0.002024   500.125622     0.000000 
 113.299000   480.000000     0.002083   497.935911     0.000000 
 113.307000   471.000000     0.002123   495.824928     0.000000 
 113.315000   469.000000     0.002132   493.796245     0.000000 
 113.323000   501.000000     0.001996   491.852416     0.000000 
 113.331000   493.000000     0.002028   489.995084     0.000000 
 113.339000   450.000000     0.002222   488.225086     0.000000 
 113.347000   470.000000     0.002128   486.542540     0.000000 
 113.355000   489.000000     0.002045   484.946934     0.000000 
 113.363000   495.000000     0.002020   483.437196     0.000000 
 113.371000   484.000000     0.002066   482.011768     0.000000 
 113.379000   480.000000     0.002083   480.668672     0.000000 
 113.387000   468.000000     0.002137   479.405567     0.000000 
 113.395000   437.000000     0.002288   478.219814     0.000000 
 113.403000   460.000000     0.002174   477.108524     0.000000 
 113.411000   469.000000     0.002132   476.068613     0.000000 
 113.419000   468.000000     0.002137   475.096848     0.000000 
 113.427000   483.000000     0.002070   474.189894     0.000000 
 113.435000   491.000000     0.002037   473.344351     0.000000 
 113.443000   410.000000     0.002439   472.556796     0.000000 
 113.451000   422.000000     0.002370   471.823815     0.000000 
 113.459000   446.000000     0.002242   471.142031     0.000000 
 113.467000   441.000000     0.002268   470.508134     0.000000 
 113.475000   476.000000     0.002101   469.918903     0.000000 
 113.483000   502.000000     0.001992   469.371223     0.000000 
 113.491000   486.000000     0.002058   468.862102     0.000000 
 113.499000   464.000000     0.002155   468.388684     0.000000 
 113.507000   460.000000     0.002174   467.948257     0.000000 
 113.515000   454.000000     0.002203   467.538261     0.000000 
 113.523000   465.000000     0.002151   467.156288     0.000000 
 113.531000   467.000000     0.002141   466.800089     0.000000 
 113.539000   410.000000     0.002439   466.467568     0.000000 
 113.547000   434.000000     0.002304   466.156782     0.000000 
 113.555000   434.000000     0.002304   465.865937     0.000000 
 113.563000   447.000000     0.002237   465.593383     0.000000 
 113.571000   461.000000     0.002169   465.337607     0.000000 
 113.579000   402.000000     0.002488   465.097224     0.000000 
 113.587000   518.000000     0.001931   464.870974     0.000000 
 113.595000   476.000000     0.002101   464.657713     0.000000 
 113.603000   410.000000     0.002439   464.456400     0.000000 
 113.611000   429.000000     0.002331   464.266097     0.000000 
 113.619000   453.000000     0.002208   464.085954     0.000000 
 113.627000   460.000000     0.002174   463.915208     0.000000 
 113.635000   485.000000     0.002062   463.753168     0.000000 
 113.643000   500.000000     0.002000   463.599214     0.000000 
 113.651000   486.000000     0.002058   463.452790     0.000000 
 113.659000   476.000000     0.002101   463.313394     0.000000 
 113.667000   479.000000     0.002088   463.180574     0.000000 
 113.675000   507.000000     0.001972   463.053926     0.000000 
 113.683000   479.000000     0.002088   462.933085     0.000000 
 113.691000   460.000000     0.002174   462.817722     0.000000 
 113.699000   455.000000     0.002198   462.707540     0.000000 
 113.707000   462.000000     0.002165   462.602272     0.000000 
 113.715000   475.000000     0.002105   462.501674     0.000000 
 113.723000   454.000000     0.002203   462.405527     0.000000 
 113.731000   470.000000     0.002128   462.313630     0.000000 
 113.739000   489.000000     0.002045   462.225802     0.000000 
 113.747000   482.000000     0.002075   462.141876     0.000000 
 113.755000   428.000000     0.002336   462.061701     0.000000 
 113.763000   444.000000     0.002252   461.985136     0.000000 
 113.771000   457.000000     0.002188   461.912056     0.000000 
 113.779000   456.000000     0.002193   461.842341     0.000000 
 113.787000   467.000000     0.002141   461.775884     0.000000 
 113.795000   439.000000     0.002278   461.712585     0.000000 
 113.803000   424.000000     0.002358   461.652352     0.000000 
 113.811000   455.000000     0.002198   461.595101     0.000000 
 113.819000   478.000000     0.002092   461.540752     0.000000 
 113.827000   487.000000     0.002053   461.489234     0.000000 
 113.835000   470.000000     0.002128   461.440480     0.000000 
 113.843000   445.000000     0.002247   461.394428     0.000000 
 113.851000   442.000000     0.002262   461.351022     0.000000 
 113.859000   458.000000     0.002183   461.310212     0.000000 
 113.867000   456.000000     0.002193   461.271949     0.000000 
 113.875000   478.000000     0.002092   461.236190     0.000000 
 113.883000   516.000000     0.001938   461.202899     0.000000 
 113.891000   457.000000     0.002188   461.172040     0.000000 
 113.899000   450.000000     0.002222   461.143582     0.000000 
 113.907000   507.000000     0.001972   461.117501     0.000000 
 113.915000   506.000000     0.001976   461.093773     0.000000 
 113.923000   450.000000     0.002222   461.072380     0.000000 
 113.931000   489.000000     0.002045   461.053308     0.000000 
 113.939000   484.000000     0.002066   461.036547     0.000000 
 113.947000   488.000000     0.002049   461.022091     0.000000 
 113.955000   447.000000     0.002237   461.009938     0.000000 
 113.963000   447.000000     0.002237   461.000091     0.000000 
 113.971000   448.000000     0.002232   460.992559     0.000000 
 113.979000   449.000000     0.002227   460.987353     0.000000 
 113.987000   417.000000     0.002398   460.984492     0.000000 
 113.995000   451.000000     0.002217   460.984001     0.000000 
 114.003000   464.000000     0.002155   460.985909     0.000000 
 114.011000   490.000000     0.002041   460.990255     0.000000 
 114.019000   465.000000     0.002151   460.997083     0.000000 
 114.027000   412.000000     0.002427   461.006445     0.000000 
 114.035000   431.000000     0.002320   461.018405     0.000000 
 114.043000   460.000000     0.002174   461.033034     0.000000 
 114.051000   461.000000     0.002169   461.050415     0.000000 
 114.059000   452.000000     0.002212   461.070644     0.000000 
 114.067000   443.000000     0.002257   461.093828     0.000000 
 114.075000   442.000000     0.002262   461.120092     0.000000 
 114.083000   430.000000     0.002326   461.149575     0.000000 
 114.091000   431.000000     0.002320   461.182434     0.000000 
 114.099000   396.000000     0.002525   461.218847     0.000000 
 114.107000   435.000000     0.002299   461.259014     0.000000 
 114.115000   448.000000     0.002232   461.303155     0.000000 
 114.123000   444.000000     0.002252   461.351521     0.000000 
 114.131000   522.000000     0.001916   461.404386     0.000000 
 114.139000   444.000000     0.002252   461.462056     0.000000 
 114.147000   448.000000     0.002232   461.524871     0.000000 
 114.155000   439.000000     0.002278   461.593203     0.000000 
 114.163000   434.000000     0.002304   461.667461     0.000000 
 114.171000   448.000000     0.002232   461.748094     0.000000 
 114.179000   478.000000     0.002092   461.835591     0.000000 
 114.187000   450.000000     0.002222   461.930483     0.000000 
 114.195000   452.000000     0.002212   462.033347     0.000000 
 114.203000   476.000000     0.002101   462.144803     0.000000 
 114.211000   489.000000     0.002045   462.265517     0.000000 
 114.219000   470.000000     0.002128   462.396203     0.000000 
 114.227000   465.000000     0.002151   462.537620     0.000000 
 114.235000   475.000000     0.002105   462.690571     0.000000 
 114.243000   458.000000     0.002183   462.855904     0.000000 
 114.251000   455.000000     0.002198   463.034507     0.000000 
 114.259000   451.000000     0.002217   463.227306     0.000000 
 114.267000   440.000000     0.002273   463.435262     0.000000 
 114.275000   457.000000     0.002188   463.659364     0.000000 
 114.283000   447.000000     0.002237   463.900624     0.000000 
 114.291000   443.000000     0.002257   464.160069     0.000000 
 114.299000   493.000000     0.002028   464.438736     0.000000 
 114.307000   495.000000     0.002020   464.737658     0.000000 
 114.315000   457.000000     0.002188   465.057859     0.000000 
 114.323000   433.000000     0.002309   465.400341     0.000000 
 114.331000   445.000000     0.002247   465.766071     0.000000 
 114.339000   485.000000     0.002062   466.155968     0.000000 
 114.347000   466.000000     0.002146   466.570891     0.000000 
 114.355000   411.000000     0.002433   467.011625     0.000000 
 114.363000   446.000000     0.002242   467.478861     0.000000 
 114.371000   438.000000     0.002283   467.973184     0.000000 
 114.379000   416.000000     0.002404   468.495055     0.000000 
 114.387000   444.000000     0.002252   469.044791     0.000000 
 114.395000   485.000000     0.002062   469.622544     0.000000 
 114.403000   471.000000     0.002123   470.228284     0.000000 
 114.411000   448.000000     0.002232   470.861773     0.000000 
 114.419000   444.000000     0.002252   471.522543     0.000000 
 114.427000   462.000000     0.002165   472.209863     0.000000 
 114.435000   445.000000     0.002247   472.922715     0.000000 
 114.443000   479.000000     0.002088   473.659758     0.000000 
 114.451000   476.000000     0.002101   474.419286     0.000000 
 114.459000   479.000000     0.002088   475.199196     0.000000 
 114.467000   518.000000     0.001931   475.996933     0.000000 
 114.475000   504.000000     0.001984   476.809448     0.000000 
 114.483000   488.000000     0.002049   477.633150     0.000000 
 114.491000   497.000000     0.002012   478.463848     0.000000 
 114.499000   451.000000     0.002217   479.296717     0.000000 
 114.507000   478.000000     0.002092   480.126255     0.000000 
 114.515000   478.000000     0.002092   480.946265     0.000000 
 114.523000   477.000000     0.002096   481.749859     0.000000 
 114.531000   499.000000     0.002004   482.529488     0.000000 
 114.539000   524.000000     0.001908   483.277021     0.000000 
 114.547000   468.000000     0.002137   483.983865     0.000000 
 114.555000   471.000000     0.002123   484.641143     0.000000 
 114.563000   487.000000     0.002053   485.239927     0.000000 
 114.571000   443.000000     0.002257   485.771517     0.000000 
 114.579000   512.000000     0.001953   486.227768     0.000000 
 114.587000   547.000000     0.001828   486.601426     0.000000 
 114.595000   543.000000     0.001842   486.886471     0.000000 
 114.603000   543.000000     0.001842   487.078417     0.000000 
 114.611000   548.000000     0.001825   487.174548     0.000000 
 114.619000   531.000000     0.001883   487.174074     0.000000 
 114.627000   526.000000     0.001901   487.078174     0.000000 
 114.635000   519.000000     0.001927   486.889932     0.000000 
 114.643000   471.000000     0.002123   486.614169     0.000000 
 114.651000   494.000000     0.002024   486.257192     0.000000 
 114.659000   542.000000     0.001845   485.826483     0.000000 
 114.667000   511.000000     0.001957   485.330360     0.000000 
 114.675000   506.000000     0.001976   484.777636     0.000000 
 114.683000   495.000000     0.002020   484.177301     0.000000 
 114.691000   477.000000     0.002096   483.538251     0.000000 
 114.699000   503.000000     0.001988   482.869063     0.000000 
 114.707000   510.000000     0.001961   482.177826     0.000000 
 114.715000   523.000000     0.001912   481.472031     0.000000 
 114.723000   496.000000     0.002016   480.758500     0.000000 
 114.731000   503.000000     0.001988   480.043360     0.000000 
 114.739000   453.000000     0.002208   479.332046     0.000000 
 114.747000   454.000000     0.002203   478.629322     0.000000 
 114.755000   471.000000     0.002123   477.939321     0.000000 
 114.763000   488.000000     0.002049   477.265590     0.000000 
 114.771000   500.000000     0.002000   476.611140     0.000000 
 114.779000   495.000000     0.002020   475.978500     0.000000 
 114.787000   475.000000     0.002105   475.369756     0.000000 
 114.795000   474.000000     0.002110   474.786607     0.000000 
 114.803000   477.000000     0.002096   474.230398     0.000000 
 114.811000   486.000000     0.002058   473.702162     0.000000 
 114.819000   522.000000     0.001916   473.202654     0.000000 
 114.827000   531.000000     0.001883   472.732376     0.000000 
 114.835000   499.000000     0.002004   472.291612     0.000000 
 114.843000   418.000000     0.002392   471.880446     0.000000 
 114.851000   467.000000     0.002141   471.498789     0.000000 
 114.859000   476.000000     0.002101   471.146395     0.000000 
 114.867000   485.000000     0.002062   470.822885     0.000000 
 114.875000   501.000000     0.001996   470.527761     0.000000 
 114.883000   463.000000     0.002160   470.260427     0.000000 
 114.891000   448.000000     0.002232   470.020198     0.000000 
 114.899000   385.000000     0.002597   469.806323     0.000000 
 114.907000   455.000000     0.002198   469.617992     0.000000 
 114.915000   425.000000     0.002353   469.454356     0.000000 
 114.923000   473.000000     0.002114   469.314535     0.000000 
 114.931000   441.000000     0.002268   469.197632     0.000000 
 114.939000   433.000000     0.002309   469.102744     0.000000 
 114.947000   446.000000     0.002242   469.028968     0.000000 
 114.955000   458.000000     0.002183   468.975419     0.000000 
 114.963000   472.000000     0.002119   468.941229     0.000000 
 114.971000   467.000000     0.002141   468.925560     0.000000 
 114.979000   466.000000     0.002146   468.927607     0.000000 
 114.987000   481.000000     0.002079   468.946604     0.000000 
 114.995000   498.000000     0.002008   468.981831     0.000000 
 115.003000   513.000000     0.001949   469.032613     0.000000 
 115.011000   504.000000     0.001984   469.098326     0.000000 
 115.019000   469.000000     0.002132   469.178395     0.000000 
 115.027000   465.000000     0.002151   469.272303     0.000000 
 115.035000   439.000000     0.002278   469.379581     0.000000 
 115.043000   448.000000     0.002232   469.499819     0.000000 
 115.051000   459.000000     0.002179   469.632656     0.000000 
 115.059000   471.000000     0.002123   469.777788     0.000000 
 115.067000   494.000000     0.002024   469.934961     0.000000 
 115.075000   473.000000     0.002114   470.103971     0.000000 
 115.083000   465.000000     0.002151   470.284665     0.000000 
 115.091000   471.000000     0.002123   470.476941     0.000000 
 115.099000   466.000000     0.002146   470.680739     0.000000 
 115.107000   507.000000     0.001972   470.896051     0.000000 
 115.115000   496.000000     0.002016   471.122910     0.000000 
 115.123000   442.000000     0.002262   471.361395     0.000000 
 115.131000   469.000000     0.002132   471.611628     0.000000 
 115.139000   480.000000     0.002083   471.873776     0.000000 
 115.147000   444.000000     0.002252   472.148046     0.000000 
 115.155000   465.000000     0.002151   472.434692     0.000000 
 115.163000   486.000000     0.002058   472.734011     0.000000 
 115.171000   479.000000     0.002088   473.046343     0.000000 
 115.179000   473.000000     0.002114   473.372080     0.000000 
 115.187000   491.000000     0.002037   473.711658     0.000000 
 115.195000   486.000000     0.002058   474.065570     0.000000 
 115.203000   445.000000     0.002247   474.434361     0.000000 
 115.211000   466.000000     0.002146   474.818639     0.000000 
 115.219000   471.000000     0.002123   475.219076     0.000000 
 115.227000   453.000000     0.002208   475.636414     0.000000 
 115.235000   492.000000     0.002033   476.071475     0.000000 
 115.243000   510.000000     0.001961   476.525168     0.000000 
 115.251000   461.000000     0.002169   476.998495     0.000000 
 115.259000   466.000000     0.002146   477.492566     0.000000 
 115.267000   462.000000     0.002165   478.008607     0.000000 
 115.275000   442.000000     0.002262   478.547978     0.000000 
 115.283000   464.000000     0.002155   479.112182     0.000000 
 115.291000   482.000000     0.002075   479.702885     0.000000 
 115.299000   469.000000     0.002132   480.321933     0.000000 
 115.307000   442.000000     0.002262   480.971372     0.000000 
 115.315000   484.000000     0.002066   481.653469     0.000000 
 115.323000   450.000000     0.002222   482.370736     0.000000 
 115.331000   445.000000     0.002247   483.125952     0.000000 
 115.339000   467.000000     0.002141   483.922195     0.000000 
 115.347000   507.000000     0.001972   484.762864     0.000000 
 115.355000   492.000000     0.002033   485.651712     0.000000 
 115.363000   495.000000     0.002020   486.592875     0.000000 
 115.371000   461.000000     0.002169   487.590906     0.000000 
 115.379000   519.000000     0.001927   488.650803     0.000000 
 115.387000   517.000000     0.001934   489.778045     0.000000 
 115.395000   471.000000     0.002123   490.978621     0.000000 
 115.403000   495.000000     0.002020   492.259062     0.000000 
 115.411000   502.000000     0.001992   493.626472     0.000000 
 115.419000   476.000000     0.002101   495.088552     0.000000 
 115.427000   457.000000     0.002188   496.653626     0.000000 
 115.435000   487.000000     0.002053   498.330661     0.000000 
 115.443000   498.000000     0.002008   500.129282     0.000000 
 115.451000   512.000000     0.001953   502.059781     0.000000 
 115.459000   494.000000     0.002024   504.133123     0.000000 
 115.467000   501.000000     0.001996   506.360934     0.000000 
 115.475000   449.000000     0.002227   508.755497     0.000000 
 115.483000   512.000000     0.001953   511.329721     0.000000 
 115.491000   512.000000     0.001953   514.097109     0.000000 
 115.499000   472.000000     0.002119   517.071714     0.000000 
 115.507000   459.000000     0.002179   520.268080     0.000000 
 115.515000   478.000000     0.002092   523.701170     0.000000 
 115.523000   523.000000     0.001912   527.386283     0.000000 
 115.531000   549.000000     0.001821   531.338956     0.000000 
 115.539000   521.000000     0.001919   535.574852     0.000000 
 115.547000   501.000000     0.001996   540.109631     0.000000 
 115.555000   506.000000     0.001976   544.958816     0.000000 
 115.563000   506.000000     0.001976   550.137629     0.000000 
 115.571000   527.000000     0.001898   555.660835     0.000000 
 115.579000   539.000000     0.001855   561.542555     0.000000 
 115.587000   500.000000     0.002000   567.796076     0.000000 
 115.595000   533.000000     0.001876   574.433644     0.000000 
 115.603000   578.000000     0.001730   581.466251     0.000000 
 115.611000   536.000000     0.001866   588.903405     0.000000 
 115.619000   582.000000     0.001718   596.752893     0.000000 
 115.627000   536.000000     0.001866   605.020522     0.000000 
 115.635000   502.000000     0.001992   613.709854     0.000000 
 115.643000   544.000000     0.001838   622.821923     0.000000 
 115.651000   616.000000     0.001623   632.354925     0.000000 
 115.659000   609.000000     0.001642   642.303891     0.000000 
 115.667000   607.000000     0.001647   652.660328     0.000000 
 115.675000   614.000000     0.001629   663.411822     0.000000 
 115.683000   630.000000     0.001587   674.541602     0.000000 
 115.691000   643.000000     0.001555   686.028076     0.000000 
 115.699000   681.000000     0.001468   697.844271     0.000000 
 115.707000   680.000000     0.001471   709.957282     0.000000 
 115.715000   675.000000     0.001481   722.327623     0.000000 
 115.723000   689.000000     0.001451   734.908561     0.000000 
 115.731000   685.000000     0.001460   747.645430     0.000000 
 115.739000   706.000000     0.001416   760.474953     0.000000 
 115.747000   755.000000     0.001325   773.324619     0.000000 
 115.755000   799.000000     0.001252   786.112161     0.000000 
 115.763000   857.000000     0.001167   798.745284     0.000000 
 115.771000   873.000000     0.001145   811.121622     0.000000 
 115.779000   891.000000     0.001122   823.129178     0.000000 
 115.787000   932.000000     0.001073   834.647211     0.000000 
 115.795000  1001.000000     0.000999   845.547825     0.000000 
 115.803000  1009.000000     0.000991   855.698238     0.000000 
 115.811000  1125.000000     0.000889   864.963804     0.000000 
 115.819000  1251.000000     0.000799   873.211775     0.000000 
 115.827000  1221.000000     0.000819   880.315594     0.000000 
 115.835000  1309.000000     0.000764   886.159671     0.000000 
 115.843000  1410.000000     0.000709   890.644145     0.000000 
 115.851000  1442.000000     0.000693   893.689438     0.000000 
 115.859000  1420.000000     0.000704   895.240051     0.000000 
 115.867000  1508.000000     0.000663   895.267407     0.000000 
 115.875000  1560.000000     0.000641   893.771320     0.000000 
 115.883000  1541.000000     0.000649   890.780003     0.000000 
 115.891000  1507.000000     0.000664   886.348621     0.000000 
 115.899000  1479.000000     0.000676   880.556465     0.000000 
 115.907000  1453.000000     0.000688   873.503163     0.000000 
 115.915000  1432.000000     0.000698   865.304141     0.000000 
 115.923000  1383.000000     0.000723   856.085853     0.000000 
 115.931000  1266.000000     0.000790   845.981010     0.000000 
 115.939000  1174.000000     0.000852   835.124274     0.000000 
 115.947000  1162.000000     0.000861   823.648488     0.000000 
 115.955000  1093.000000     0.000915   811.681648     0.000000 
 115.963000  1072.000000     0.000933   799.344620     0.000000 
 115.971000   970.000000     0.001031   786.749542     0.000000 
 115.979000   904.000000     0.001106   773.998932     0.000000 
 115.987000   872.000000     0.001147   761.185239     0.000000 
 115.995000   864.000000     0.001157   748.390880     0.000000 
 116.003000   834.000000     0.001199   735.688513     0.000000 
 116.011000   775.000000     0.001290   723.141553     0.000000 
 116.019000   735.000000     0.001361   710.804797     0.000000 
 116.027000   712.000000     0.001404   698.725099     0.000000 
 116.035000   723.000000     0.001383   686.942056     0.000000 
 116.043000   731.000000     0.001368   675.488676     0.000000 
 116.051000   691.000000     0.001447   664.392031     0.000000 
 116.059000   638.000000     0.001567   653.673799     0.000000 
 116.067000   676.000000     0.001479   643.350833     0.000000 
 116.075000   671.000000     0.001490   633.435624     0.000000 
 116.083000   640.000000     0.001563   623.936737     0.000000 
 116.091000   609.000000     0.001642   614.859209     0.000000 
 116.099000   592.000000     0.001689   606.204904     0.000000 
 116.107000   593.000000     0.001686   597.972849     0.000000 
 116.115000   605.000000     0.001653   590.159537     0.000000 
 116.123000   593.000000     0.001686   582.759212     0.000000 
 116.131000   585.000000     0.001709   575.764141     0.000000 
 116.139000   551.000000     0.001815   569.164859     0.000000 
 116.147000   513.000000     0.001949   562.950421     0.000000 
 116.155000   544.000000     0.001838   557.108622     0.000000 
 116.163000   558.000000     0.001792   551.626217     0.000000 
 116.171000   539.000000     0.001855   546.489122     0.000000 
 116.179000   558.000000     0.001792   541.682612     0.000000 
 116.187000   512.000000     0.001953   537.191498     0.000000 
 116.195000   572.000000     0.001748   533.000293     0.000000 
 116.203000   553.000000     0.001808   529.093371     0.000000 
 116.211000   547.000000     0.001828   525.455103     0.000000 
 116.219000   575.000000     0.001739   522.069983     0.000000 
 116.227000   586.000000     0.001706   518.922746     0.000000 
 116.235000   561.000000     0.001783   515.998462     0.000000 
 116.243000   533.000000     0.001876   513.282620     0.000000 
 116.251000   518.000000     0.001931   510.761201     0.000000 
 116.259000   538.000000     0.001859   508.420737     0.000000 
 116.267000   502.000000     0.001992   506.248356     0.000000 
 116.275000   473.000000     0.002114   504.231813     0.000000 
 116.283000   530.000000     0.001887   502.359521     0.000000 
 116.291000   515.000000     0.001942   500.620557     0.000000 
 116.299000   481.000000     0.002079   499.004673     0.000000 
 116.307000   504.000000     0.001984   497.502291     0.000000 
 116.315000   558.000000     0.001792   496.104493     0.000000 
 116.323000   524.000000     0.001908   494.803009     0.000000 
 116.331000   505.000000     0.001980   493.590193     0.000000 
 116.339000   505.000000     0.001980   492.459002     0.000000 
 116.347000   540.000000     0.001852   491.402969     0.000000 
 116.355000   513.000000     0.001949   490.416175     0.000000 
 116.363000   536.000000     0.001866   489.493214     0.000000 
 116.371000   470.000000     0.002128   488.629168     0.000000 
 116.379000   519.000000     0.001927   487.819570     0.000000 
 116.387000   539.000000     0.001855   487.060377     0.000000 
 116.395000   498.000000     0.002008   486.347935     0.000000 
 116.403000   509.000000     0.001965   485.678952     0.000000 
 116.411000   469.000000     0.002132   485.050470     0.000000 
 116.419000   450.000000     0.002222   484.459835     0.000000 
 116.427000   475.000000     0.002105   483.904674     0.000000 
 116.435000   488.000000     0.002049   483.382870     0.000000 
 116.443000   488.000000     0.002049   482.892543     0.000000 
 116.451000   468.000000     0.002137   482.432025     0.000000 
 116.459000   494.000000     0.002024   481.999847     0.000000 
 116.467000   535.000000     0.001869   481.594722     0.000000 
 116.475000   516.000000     0.001938   481.215529     0.000000 
 116.483000   519.000000     0.001927   480.861302     0.000000 
 116.491000   521.000000     0.001919   480.531217     0.000000 
 116.499000   475.000000     0.002105   480.224588     0.000000 
 116.507000   454.000000     0.002203   479.940855     0.000000 
 116.515000   429.000000     0.002331   479.679582     0.000000 
 116.523000   448.000000     0.002232   479.440446     0.000000 
 116.531000   401.000000     0.002494   479.223242     0.000000 
 116.539000   458.000000     0.002183   479.027875     0.000000 
 116.547000   446.000000     0.002242   478.854363     0.000000 
 116.555000   496.000000     0.002016   478.702834     0.000000 
 116.563000   486.000000     0.002058   478.573527     0.000000 
 116.571000   507.000000     0.001972   478.466798     0.000000 
 116.579000   457.000000     0.002188   478.383117     0.000000 
 116.587000   471.000000     0.002123   478.323075     0.000000 
 116.595000   464.000000     0.002155   478.287383     0.000000 
 116.603000   475.000000     0.002105   478.276880     0.000000 
 116.611000   472.000000     0.002119   478.292536     0.000000 
 116.619000   464.000000     0.002155   478.335451     0.000000 
 116.627000   483.000000     0.002070   478.406865     0.000000 
 116.635000   482.000000     0.002075   478.508158     0.000000 
 116.643000   488.000000     0.002049   478.640850     0.000000 
 116.651000   459.000000     0.002179   478.806607     0.000000 
 116.659000   454.000000     0.002203   479.007242     0.000000 
 116.667000   448.000000     0.002232   479.244711     0.000000 
 116.675000   425.000000     0.002353   479.521114     0.000000 
 116.683000   430.000000     0.002326   479.838692     0.000000 
 116.691000   443.000000     0.002257   480.199822     0.000000 
 116.699000   477.000000     0.002096   480.607011     0.000000 
 116.707000   510.000000     0.001961   481.062885     0.000000 
 116.715000   475.000000     0.002105   481.570183     0.000000 
 116.723000   407.000000     0.002457   482.131740     0.000000 
 116.731000   469.000000     0.002132   482.750472     0.000000 
 116.739000   484.000000     0.002066   483.429360     0.000000 
 116.747000   418.000000     0.002392   484.171429     0.000000 
 116.755000   481.000000     0.002079   484.979725     0.000000 
 116.763000   431.000000     0.002320   485.857289     0.000000 
 116.771000   440.000000     0.002273   486.807128     0.000000 
 116.779000   479.000000     0.002088   487.832188     0.000000 
 116.787000   481.000000     0.002079   488.935319     0.000000 
 116.795000   466.000000     0.002146   490.119239     0.000000 
 116.803000   478.000000     0.002092   491.386502     0.000000 
 116.811000   466.000000     0.002146   492.739451     0.000000 
 116.819000   489.000000     0.002045   494.180182     0.000000 
 116.827000   485.000000     0.002062   495.710500     0.000000 
 116.835000   462.000000     0.002165   497.331872     0.000000 
 116.843000   452.000000     0.002212   499.045380     0.000000 
 116.851000   456.000000     0.002193   500.851670     0.000000 
 116.859000   447.000000     0.002237   502.750901     0.000000 
 116.867000   455.000000     0.002198   504.742685     0.000000 
 116.875000   481.000000     0.002079   506.826025     0.000000 
 116.883000   487.000000     0.002053   508.999252     0.000000 
 116.891000   499.000000     0.002004   511.259950     0.000000 
 116.899000   491.000000     0.002037   513.604878     0.000000 
 116.907000   490.000000     0.002041   516.029878     0.000000 
 116.915000   504.000000     0.001984   518.529786     0.000000 
 116.923000   517.000000     0.001934   521.098321     0.000000 
 116.931000   487.000000     0.002053   523.727970     0.000000 
 116.939000   484.000000     0.002066   526.409870     0.000000 
 116.947000   422.000000     0.002370   529.133678     0.000000 
 116.955000   461.000000     0.002169   531.887448     0.000000 
 116.963000   500.000000     0.002000   534.657512     0.000000 
 116.971000   548.000000     0.001825   537.428373     0.000000 
 116.979000   511.000000     0.001957   540.182640     0.000000 
 116.987000   496.000000     0.002016   542.900999     0.000000 
 116.995000   541.000000     0.001848   545.562251     0.000000 
 117.003000   531.000000     0.001883   548.143438     0.000000 
 117.011000   517.000000     0.001934   550.620074     0.000000 
 117.019000   479.000000     0.002088   552.966486     0.000000 
 117.027000   486.000000     0.002058   555.156311     0.000000 
 117.035000   500.000000     0.002000   557.139701     0.000000 
 117.043000   562.000000     0.001779   558.937741     0.000000 
 117.051000   592.000000     0.001689   560.502666     0.000000 
 117.059000   597.000000     0.001675   561.812572     0.000000 
 117.067000   608.000000     0.001645   562.848831     0.000000 
 117.075000   677.000000     0.001477   563.596911     0.000000 
 117.083000   708.000000     0.001412   563.763364     0.000000 
 117.091000   735.000000     0.001361   563.912015     0.000000 
 117.099000   784.000000     0.001276   563.759242     0.000000 
 117.107000   781.000000     0.001280   563.311530     0.000000 
 117.115000   750.000000     0.001333   562.580559     0.000000 
 117.123000   683.000000     0.001464   561.582657     0.000000 
 117.131000   656.000000     0.001524   560.338103     0.000000 
 117.139000   624.000000     0.001603   558.870279     0.000000 
 117.147000   578.000000     0.001730   557.204777     0.000000 
 117.155000   559.000000     0.001789   555.368515     0.000000 
 117.163000   532.000000     0.001880   553.388917     0.000000 
 117.171000   503.000000     0.001988   551.293186     0.000000 
 117.179000   471.000000     0.002123   549.107720     0.000000 
 117.187000   501.000000     0.001996   546.857645     0.000000 
 117.195000   457.000000     0.002188   544.566496     0.000000 
 117.203000   463.000000     0.002160   542.256000     0.000000 
 117.211000   481.000000     0.002079   539.945972     0.000000 
 117.219000   463.000000     0.002160   537.654289     0.000000 
 117.227000   475.000000     0.002105   535.396918     0.000000 
 117.235000   491.000000     0.002037   533.187993     0.000000 
 117.243000   484.000000     0.002066   531.039916     0.000000 
 117.251000   498.000000     0.002008   528.963474     0.000000 
 117.259000   489.000000     0.002045   526.967959     0.000000 
 117.267000   478.000000     0.002092   525.061294     0.000000 
 117.275000   499.000000     0.002004   523.250142     0.000000 
 117.283000   507.000000     0.001972   521.540026     0.000000 
 117.291000   468.000000     0.002137   519.935434     0.000000 
 117.299000   496.000000     0.002016   518.439920     0.000000 
 117.307000   497.000000     0.002012   517.056209     0.000000 
 117.315000   521.000000     0.001919   515.786295     0.000000 
 117.323000   493.000000     0.002028   514.631549     0.000000 
 117.331000   488.000000     0.002049   513.592826     0.000000 
 117.339000   473.000000     0.002114   512.670577     0.000000 
 117.347000   480.000000     0.002083   511.864968     0.000000 
 117.355000   456.000000     0.002193   511.175993     0.000000 
 117.363000   453.000000     0.002208   510.603596     0.000000 
 117.371000   491.000000     0.002037   510.147771     0.000000 
 117.379000   474.000000     0.002110   509.808661     0.000000 
 117.387000   453.000000     0.002208   509.586632     0.000000 
 117.395000   479.000000     0.002088   509.482323     0.000000 
 117.403000   490.000000     0.002041   509.496672     0.000000 
 117.411000   538.000000     0.001859   509.630913     0.000000 
 117.419000   533.000000     0.001876   509.886540     0.000000 
 117.427000   496.000000     0.002016   510.265258     0.000000 
 117.435000   479.000000     0.002088   510.768904     0.000000 
 117.443000   483.000000     0.002070   511.399356     0.000000 
 117.451000   478.000000     0.002092   512.158447     0.000000 
 117.459000   506.000000     0.001976   513.047854     0.000000 
 117.467000   493.000000     0.002028   514.069011     0.000000 
 117.475000   485.000000     0.002062   515.223015     0.000000 
 117.483000   537.000000     0.001862   516.510536     0.000000 
 117.491000   536.000000     0.001866   517.931748     0.000000 
 117.499000   547.000000     0.001828   519.486246     0.000000 
 117.507000   513.000000     0.001949   521.172984     0.000000 
 117.515000   498.000000     0.002008   522.990204     0.000000 
 117.523000   489.000000     0.002045   524.935365     0.000000 
 117.531000   479.000000     0.002088   527.005079     0.000000 
 117.539000   523.000000     0.001912   529.195021     0.000000 
 117.547000   477.000000     0.002096   531.499855     0.000000 
 117.555000   518.000000     0.001931   533.913127     0.000000 
 117.563000   525.000000     0.001905   536.427168     0.000000 
 117.571000   536.000000     0.001866   539.032971     0.000000 
 117.579000   534.000000     0.001873   541.720071     0.000000 
 117.587000   583.000000     0.001715   544.476411     0.000000 
 117.595000   566.000000     0.001767   547.288213     0.000000 
 117.603000   537.000000     0.001862   550.139858     0.000000 
 117.611000   556.000000     0.001799   553.013778     0.000000 
 117.619000   557.000000     0.001795   555.890385     0.000000 
 117.627000   580.000000     0.001724   558.748053     0.000000 
 117.635000   580.000000     0.001724   561.563158     0.000000 
 117.643000   596.000000     0.001678   564.310223     0.000000 
 117.651000   613.000000     0.001631   566.962150     0.000000 
 117.659000   644.000000     0.001553   569.490607     0.000000 
 117.667000   689.000000     0.001451   571.866524     0.000000 
 117.675000   643.000000     0.001555   574.060752     0.000000 
 117.683000   692.000000     0.001445   576.044827     0.000000 
 117.691000   691.000000     0.001447   577.791854     0.000000 
 117.699000   725.000000     0.001379   579.277422     0.000000 
 117.707000   656.000000     0.001524   580.480541     0.000000 
 117.715000   686.000000     0.001458   581.384492     0.000000 
 117.723000   790.000000     0.001266   581.977555     0.000000 
 117.731000   737.000000     0.001357   582.253517     0.000000 
 117.739000   794.000000     0.001259   582.211948     0.000000 
 117.747000   826.000000     0.001211   581.858189     0.000000 
 117.755000   813.000000     0.001230   581.203065     0.000000 
 117.763000   762.000000     0.001312   580.262353     0.000000 
 117.771000   726.000000     0.001377   579.056039     0.000000 
 117.779000   704.000000     0.001420   577.607434     0.000000 
 117.787000   690.000000     0.001449   575.942220     0.000000 
 117.795000   649.000000     0.001541   574.087494     0.000000 
 117.803000   621.000000     0.001610   572.070852     0.000000 
 117.811000   620.000000     0.001613   569.919588     0.000000 
 117.819000   618.000000     0.001618   567.659993     0.000000 
 117.827000   581.000000     0.001721   565.316815     0.000000 
 117.835000   517.000000     0.001934   562.912833     0.000000 
 117.843000   505.000000     0.001980   560.468579     0.000000 
 117.851000   551.000000     0.001815   558.002156     0.000000 
 117.859000   555.000000     0.001802   555.529160     0.000000 
 117.867000   563.000000     0.001776   553.062669     0.000000 
 117.875000   496.000000     0.002016   550.613300     0.000000 
 117.883000   468.000000     0.002137   548.189312     0.000000 
 117.891000   556.000000     0.001799   545.796741     0.000000 
 117.899000   493.000000     0.002028   543.439575     0.000000 
 117.907000   519.000000     0.001927   541.119953     0.000000 
 117.915000   513.000000     0.001949   538.838390     0.000000 
 117.923000   495.000000     0.002020   536.594032     0.000000 
 117.931000   474.000000     0.002110   534.384928     0.000000 
 117.939000   524.000000     0.001908   532.208327     0.000000 
 117.947000   500.000000     0.002000   530.060979     0.000000 
 117.955000   494.000000     0.002024   527.939442     0.000000 
 117.963000   494.000000     0.002024   525.840379     0.000000 
 117.971000   503.000000     0.001988   523.760820     0.000000 
 117.979000   517.000000     0.001934   521.698391     0.000000 
 117.987000   528.000000     0.001894   519.651489     0.000000 
 117.995000   550.000000     0.001818   517.619386     0.000000 
 118.003000   543.000000     0.001842   515.602270     0.000000 
 118.011000   505.000000     0.001980   513.601225     0.000000 
 118.019000   522.000000     0.001916   511.618144     0.000000 
 118.027000   524.000000     0.001908   509.655599     0.000000 
 118.035000   475.000000     0.002105   507.716683     0.000000 
 118.043000   517.000000     0.001934   505.804837     0.000000 
 118.051000   488.000000     0.002049   503.870341     0.000000 
 118.059000   494.000000     0.002024   502.023625     0.000000 
 118.067000   533.000000     0.001876   500.214665     0.000000 
 118.075000   476.000000     0.002101   498.446682     0.000000 
 118.083000   467.000000     0.002141   496.722558     0.000000 
 118.091000   507.000000     0.001972   495.044782     0.000000 
 118.099000   509.000000     0.001965   493.415421     0.000000 
 118.107000   458.000000     0.002183   491.836109     0.000000 
 118.115000   455.000000     0.002198   490.308063     0.000000 
 118.123000   474.000000     0.002110   488.832099     0.000000 
 118.131000   483.000000     0.002070   487.408670     0.000000 
 118.139000   454.000000     0.002203   486.037901     0.000000 
 118.147000   459.000000     0.002179   484.719626     0.000000 
 118.155000   466.000000     0.002146   483.453429     0.000000 
 118.163000   478.000000     0.002092   482.238679     0.000000 
 118.171000   448.000000     0.002232   481.074566     0.000000 
 118.179000   488.000000     0.002049   479.960130     0.000000 
 118.187000   498.000000     0.002008   478.894287     0.000000 
 118.195000   472.000000     0.002119   477.875854     0.000000 
 118.203000   518.000000     0.001931   476.903570     0.000000 
 118.211000   500.000000     0.002000   475.976109     0.000000 
 118.219000   462.000000     0.002165   475.092096     0.000000 
 118.227000   463.000000     0.002160   474.250122     0.000000 
 118.235000   477.000000     0.002096   473.448749     0.000000 
 118.243000   489.000000     0.002045   472.686522     0.000000 
 118.251000   493.000000     0.002028   471.961977     0.000000 
 118.259000   431.000000     0.002320   471.273642     0.000000 
 118.267000   477.000000     0.002096   470.620051     0.000000 
 118.275000   492.000000     0.002033   469.999742     0.000000 
 118.283000   469.000000     0.002132   469.411266     0.000000 
 118.291000   470.000000     0.002128   468.853186     0.000000 
 118.299000   470.000000     0.002128   468.324091     0.000000 
 118.307000   461.000000     0.002169   467.822586     0.000000 
 118.315000   483.000000     0.002070   467.347310     0.000000 
 118.323000   509.000000     0.001965   466.896926     0.000000 
 118.331000   465.000000     0.002151   466.470134     0.000000 
 118.339000   453.000000     0.002208   466.065670     0.000000 
 118.347000   502.000000     0.001992   465.682306     0.000000 
 118.355000   515.000000     0.001942   465.318857     0.000000 
 118.363000   461.000000     0.002169   464.974179     0.000000 
 118.371000   475.000000     0.002105   464.647174     0.000000 
 118.379000   486.000000     0.002058   464.336787     0.000000 
 118.387000   461.000000     0.002169   464.042011     0.000000 
 118.395000   463.000000     0.002160   463.761885     0.000000 
 118.403000   474.000000     0.002110   463.495497     0.000000 
 118.411000   468.000000     0.002137   463.241980     0.000000 
 118.419000   490.000000     0.002041   463.000515     0.000000 
 118.427000   546.000000     0.001832   462.770328     0.000000 
 118.435000   467.000000     0.002141   462.550693     0.000000 
 118.443000   516.000000     0.001938   462.340926     0.000000 
 118.451000   508.000000     0.001969   462.140387     0.000000 
 118.459000   460.000000     0.002174   461.948477     0.000000 
 118.467000   462.000000     0.002165   461.764638     0.000000 
 118.475000   450.000000     0.002222   461.588348     0.000000 
 118.483000   510.000000     0.001961   461.419126     0.000000 
 118.491000   457.000000     0.002188   461.256520     0.000000 
 118.499000   504.000000     0.001984   461.100116     0.000000 
 118.507000   487.000000     0.002053   460.949527     0.000000 
 118.515000   494.000000     0.002024   460.804398     0.000000 
 118.523000   478.000000     0.002092   460.664398     0.000000 
 118.531000   494.000000     0.002024   460.529224     0.000000 
 118.539000   488.000000     0.002049   460.398594     0.000000 
 118.547000   466.000000     0.002146   460.272251     0.000000 
 118.555000   471.000000     0.002123   460.149954     0.000000 
 118.563000   483.000000     0.002070   460.031484     0.000000 
 118.571000   497.000000     0.002012   459.916638     0.000000 
 118.579000   484.000000     0.002066   459.805227     0.000000 
 118.587000   471.000000     0.002123   459.697078     0.000000 
 118.595000   462.000000     0.002165   459.592031     0.000000 
 118.603000   486.000000     0.002058   459.489937     0.000000 
 118.611000   488.000000     0.002049   459.390658     0.000000 
 118.619000   450.000000     0.002222   459.294067     0.000000 
 118.627000   460.000000     0.002174   459.200045     0.000000 
 118.635000   476.000000     0.002101   459.108481     0.000000 
 118.643000   490.000000     0.002041   459.019273     0.000000 
 118.651000   488.000000     0.002049   458.932324     0.000000 
 118.659000   505.000000     0.001980   458.847543     0.000000 
 118.667000   452.000000     0.002212   458.764847     0.000000 
 118.675000   403.000000     0.002481   458.684157     0.000000 
 118.683000   408.000000     0.002451   458.605396     0.000000 
 118.691000   458.000000     0.002183   458.528495     0.000000 
 118.699000   481.000000     0.002079   458.453387     0.000000 
 118.707000   450.000000     0.002222   458.380010     0.000000 
 118.715000   429.000000     0.002331   458.308303     0.000000 
 118.723000   452.000000     0.002212   458.238210     0.000000 
 118.731000   456.000000     0.002193   458.169678     0.000000 
 118.739000   470.000000     0.002128   458.102654     0.000000 
 118.747000   464.000000     0.002155   458.037090     0.000000 
 118.755000   462.000000     0.002165   457.972939     0.000000 
 118.763000   493.000000     0.002028   457.910158     0.000000 
 118.771000   471.000000     0.002123   457.848702     0.000000 
 118.779000   460.000000     0.002174   457.788532     0.000000 
 118.787000   458.000000     0.002183   457.729608     0.000000 
 118.795000   395.000000     0.002532   457.671892     0.000000 
 118.803000   405.000000     0.002469   457.615350     0.000000 
 118.811000   451.000000     0.002217   457.559946     0.000000 
 118.819000   510.000000     0.001961   457.505646     0.000000 
 118.827000   378.000000     0.002646   457.452420     0.000000 
 118.835000   438.000000     0.002283   457.400236     0.000000 
 118.843000   487.000000     0.002053   457.349065     0.000000 
 118.851000   463.000000     0.002160   457.298877     0.000000 
 118.859000   473.000000     0.002114   457.249647     0.000000 
 118.867000   443.000000     0.002257   457.201347     0.000000 
 118.875000   438.000000     0.002283   457.153951     0.000000 
 118.883000   450.000000     0.002222   457.107436     0.000000 
 118.891000   489.000000     0.002045   457.061776     0.000000 
 118.899000   434.000000     0.002304   457.016950     0.000000 
 118.907000   392.000000     0.002551   456.972935     0.000000 
 118.915000   444.000000     0.002252   456.929710     0.000000 
 118.923000   433.000000     0.002309   456.887254     0.000000 
 118.931000   450.000000     0.002222   456.845547     0.000000 
 118.939000   485.000000     0.002062   456.804570     0.000000 
 118.947000   486.000000     0.002058   456.764303     0.000000 
 118.955000   449.000000     0.002227   456.724730     0.000000 
 118.963000   447.000000     0.002237   456.685831     0.000000 
 118.971000   487.000000     0.002053   456.647592     0.000000 
 118.979000   409.000000     0.002445   456.609994     0.000000 
 118.987000   426.000000     0.002347   456.573023     0.000000 
 118.995000   424.000000     0.002358   456.536662     0.000000 
 119.003000   438.000000     0.002283   456.500897     0.000000 
 119.011000   426.000000     0.002347   456.465714     0.000000 
 119.019000   429.000000     0.002331   456.431098     0.000000 
 119.027000   442.000000     0.002262   456.397036     0.000000 
 119.035000   444.000000     0.002252   456.363515     0.000000 
 119.043000   419.000000     0.002387   456.330522     0.000000 
 119.051000   423.000000     0.002364   456.298044     0.000000 
 119.059000   395.000000     0.002532   456.266070     0.000000 
 119.067000   438.000000     0.002283   456.234589     0.000000 
 119.075000   473.000000     0.002114   456.203587     0.000000 
 119.083000   459.000000     0.002179   456.173056     0.000000 
 119.091000   457.000000     0.002188   456.142983     0.000000 
 119.099000   473.000000     0.002114   456.113360     0.000000 
 119.107000   461.000000     0.002169   456.084174     0.000000 
 119.115000   421.000000     0.002375   456.055418     0.000000 
 119.123000   397.000000     0.002519   456.027081     0.000000 
 119.131000   424.000000     0.002358   455.999155     0.000000 
 119.139000   450.000000     0.002222   455.971629     0.000000 
 119.147000   477.000000     0.002096   455.944497     0.000000 
 119.155000   475.000000     0.002105   455.917748     0.000000 
 119.163000   515.000000     0.001942   455.891375     0.000000 
 119.171000   449.000000     0.002227   455.865370     0.000000 
 119.179000   429.000000     0.002331   455.839724     0.000000 
 119.187000   423.000000     0.002364   455.814432     0.000000 
 119.195000   422.000000     0.002370   455.789484     0.000000 
 119.203000   468.000000     0.002137   455.764874     0.000000 
 119.211000   471.000000     0.002123   455.740595     0.000000 
 119.219000   445.000000     0.002247   455.716639     0.000000 
 119.227000   412.000000     0.002427   455.693002     0.000000 
 119.235000   449.000000     0.002227   455.669675     0.000000 
 119.243000   442.000000     0.002262   455.646653     0.000000 
 119.251000   440.000000     0.002273   455.623929     0.000000 
 119.259000   458.000000     0.002183   455.601497     0.000000 
 119.267000   481.000000     0.002079   455.579353     0.000000 
 119.275000   474.000000     0.002110   455.557489     0.000000 
 119.283000   490.000000     0.002041   455.535901     0.000000 
 119.291000   498.000000     0.002008   455.514583     0.000000 
 119.299000   442.000000     0.002262   455.493530     0.000000 
 119.307000   428.000000     0.002336   455.472736     0.000000 
 119.315000   460.000000     0.002174   455.452197     0.000000 
 119.323000   463.000000     0.002160   455.431908     0.000000 
 119.331000   437.000000     0.002288   455.411863     0.000000 
 119.339000   435.000000     0.002299   455.392060     0.000000 
 119.347000   456.000000     0.002193   455.372491     0.000000 
 119.355000   407.000000     0.002457   455.353155     0.000000 
 119.363000   396.000000     0.002525   455.334045     0.000000 
 119.371000   432.000000     0.002315   455.315158     0.000000 
 119.379000   504.000000     0.001984   455.296490     0.000000 
 119.387000   462.000000     0.002165   455.278036     0.000000 
 119.395000   459.000000     0.002179   455.259793     0.000000 
 119.403000   449.000000     0.002227   455.241757     0.000000 
 119.411000   508.000000     0.001969   455.223924     0.000000 
 119.419000   493.000000     0.002028   455.206291     0.000000 
 119.427000   435.000000     0.002299   455.188853     0.000000 
 119.435000   439.000000     0.002278   455.171608     0.000000 
 119.443000   471.000000     0.002123   455.154552     0.000000 
 119.451000   427.000000     0.002342   455.137681     0.000000 
 119.459000   426.000000     0.002347   455.120992     0.000000 
 119.467000   454.000000     0.002203   455.104483     0.000000 
 119.475000   468.000000     0.002137   455.088150     0.000000 
 119.483000   488.000000     0.002049   455.071989     0.000000 
 119.491000   492.000000     0.002033   455.055998     0.000000 
 119.499000   495.000000     0.002020   455.040175     0.000000 
 119.507000   479.000000     0.002088   455.024515     0.000000 
 119.515000   446.000000     0.002242   455.009017     0.000000 
 119.523000   440.000000     0.002273   454.993677     0.000000 
 119.531000   504.000000     0.001984   454.978493     0.000000 
 119.539000   492.000000     0.002033   454.963462     0.000000 
 119.547000   458.000000     0.002183   454.948582     0.000000 
 119.555000   456.000000     0.002193   454.933850     0.000000 
 119.563000   474.000000     0.002110   454.919264     0.000000 
 119.571000   459.000000     0.002179   454.904821     0.000000 
 119.579000   442.000000     0.002262   454.890518     0.000000 
 119.587000   420.000000     0.002381   454.876355     0.000000 
 119.595000   443.000000     0.002257   454.862327     0.000000 
 119.603000   466.000000     0.002146   454.848434     0.000000 
 119.611000   478.000000     0.002092   454.834672     0.000000 
 119.619000   481.000000     0.002079   454.821041     0.000000 
 119.627000   466.000000     0.002146   454.807536     0.000000 
 119.635000   449.000000     0.002227   454.794158     0.000000 
 119.643000   447.000000     0.002237   454.780903     0.000000 
 119.651000   434.000000     0.002304   454.767769     0.000000 
 119.659000   435.000000     0.002299   454.754756     0.000000 
 119.667000   432.000000     0.002315   454.741860     0.000000 
 119.675000   445.000000     0.002247   454.729079     0.000000 
 119.683000   449.000000     0.002227   454.716413     0.000000 
 119.691000   443.000000     0.002257   454.703860     0.000000 
 119.699000   451.000000     0.002217   454.691417     0.000000 
 119.707000   454.000000     0.002203   454.679082     0.000000 
 119.715000   494.000000     0.002024   454.666855     0.000000 
 119.723000   467.000000     0.002141   454.636640     0.000000 
 119.731000   454.000000     0.002203   454.624679     0.000000 
 119.739000   479.000000     0.002088   454.612819     0.000000 
 119.747000   417.000000     0.002398   454.601060     0.000000 
 119.755000   454.000000     0.002203   454.589401     0.000000 
 119.763000   449.000000     0.002227   454.577838     0.000000 
 119.771000   490.000000     0.002041   454.566372     0.000000 
 119.779000   460.000000     0.002174   454.555000     0.000000 
 119.787000   452.000000     0.002212   454.543721     0.000000 
 119.795000   465.000000     0.002151   454.532533     0.000000 
 119.803000   457.000000     0.002188   454.521436     0.000000 
 119.811000   427.000000     0.002342   454.510429     0.000000 
 119.819000   394.000000     0.002538   454.499508     0.000000 
 119.827000   437.000000     0.002288   454.488674     0.000000 
 119.835000   514.000000     0.001946   454.477926     0.000000 
 119.843000   519.000000     0.001927   454.467261     0.000000 
 119.851000   490.000000     0.002041   454.456678     0.000000 
 119.859000   459.000000     0.002179   454.446177     0.000000 
 119.867000   415.000000     0.002410   454.435757     0.000000 
 119.875000   436.000000     0.002294   454.425415     0.000000 
 119.883000   446.000000     0.002242   454.415151     0.000000 
 119.891000   448.000000     0.002232   454.404964     0.000000 
 119.899000   396.000000     0.002525   454.394853     0.000000 
 119.907000   404.000000     0.002475   454.384817     0.000000 
 119.915000   451.000000     0.002217   454.374853     0.000000 
 119.923000   475.000000     0.002105   454.364963     0.000000 
 119.931000   461.000000     0.002169   454.355144     0.000000 
 119.939000   427.000000     0.002342   454.345395     0.000000 
 119.947000   468.000000     0.002137   454.335716     0.000000 
 119.955000   456.000000     0.002193   454.326105     0.000000 
 119.963000   380.000000     0.002632   454.316528     0.000000 
 119.971000   408.000000     0.002451   454.307051     0.000000 
 119.979000   400.000000     0.002500   454.297640     0.000000 
 119.987000   403.000000     0.002481   454.288294     0.000000 
#######	End powder diffraction data	#######
