_publ_contact_author_name            'Danna Freedman'
_publ_contact_author_address         '77 Massachusetts Avenue (18-592), Cambridge, MA 02139, United States'
_publ_contact_author_email           danna@mit.edu

# start Validation Reply Form
_vrf_REFLT02_LuOF_0
;
PROBLEM: The number of reflections greater than the sigma threshold
RESPONSE: The number of reflections greater than the sigma threshold and number of symmmetry-indpendent reflections are both reported as 0.
;
_vrf_PLAT881_LuOF_0
;
PROBLEM: No Datum for _diffrn_reflns_av_R_equivalents ...     Please Do !  
RESPONSE: These values are not calculated for this powder cif.
;
# end Validation Reply Form


#######	Begin powder crystal structure	#######
data_LuOF_0
_pd_block_id	LuOF_0
_pd_block_diffractogram_id	Lu_O_F_raw.xy_0
_pd_phase_name
;LuOF
;
_chemical_formula_structural        'Lu O F'
_chemical_formula_sum               'Lu O F'
_chemical_formula_weight	209.96

_space_group_crystal_system	tetragonal       
_space_group_name_H-M_alt	P4/nmm
_space_group_name_Hall	 'P 4ab 2ab -'
_space_group_IT_number	129
_exptl_crystal_description 'powder'
_exptl_crystal_colour 'white'

_cell_length_a	3.84864(8)
_cell_length_b	3.84864(8)
_cell_length_c	5.3099(2)
_cell_angle_alpha	90
_cell_angle_beta	90
_cell_angle_gamma	90
_cell_volume	78.651(5)
_exptl_crystal_density_diffrn	8.8659(5)
_exptl_absorpt_coefficient_mu	112.145(7)
_diffrn_radiation_wavelength	1.540560000
_cell_formula_units_Z	2
_cell_measurement_temperature	298
_diffrn_ambient_temperature	298
_cell_measurement_pressure	101
_cell_measurement_theta_min	2.5055
_cell_measurement_theta_max	67.488725
_cell_measurement_reflns_used 59
_diffrn_reflns_number 59
_diffrn_measured_fraction_theta_full 1

loop_
	_space_group_symop_id
	_space_group_symop_operation_xyz
	  1 'x, y, z '
	  2 '-x, y, z '
	  3 '-x+1/2, -y+1/2, -z '
	  4 '-x+1/2, y+1/2, -z '
	  5 '-y, -x, -z '
	  6 '-y, x, -z '
	  7 '-y+1/2, -x+1/2, z '
	  8 '-y+1/2, x+1/2, z '
	  9 'y, -x, -z '
	 10 'y, x, -z '
	 11 'y+1/2, -x+1/2, z '
	 12 'y+1/2, x+1/2, z '
	 13 'x, -y, z '
	 14 '-x, -y, z '
	 15 'x+1/2, -y+1/2, -z '
	 16 'x+1/2, y+1/2, -z '
loop_
	_atom_site_label
	_atom_site_type_symbol
	_atom_site_site_symmetry_multiplicity
	_atom_site_fract_x
	_atom_site_fract_y
	_atom_site_fract_z
	_atom_site_occupancy
	_atom_site_B_iso_or_equiv
Lu1 Lu   2 0.5 0 0.7852822 1 0
O2 O   2 0 0 0 1 0
F3 F   2 0 0 0.5 1 0
loop_
	_geom_bond_atom_site_label_1
	_geom_bond_atom_site_label_2
	_geom_bond_distance
	_geom_bond_site_symmetry_1
	_geom_bond_site_symmetry_2
	Lu1       O2        2.23672(4) 1_555   1_556
	Lu1       O2        2.23672(4) 1_555   3_546
	Lu1       O2        2.23672(4) 1_555   1_656
	Lu1       O2        2.23672(4) 1_555   3_556
	Lu1       F3        2.44902(5) 1_555   1_655
	Lu1       F3        2.44902(5) 1_555   3_556
	Lu1       F3        2.44902(5) 1_555   1_555
	Lu1       F3        2.44902(5) 1_555   3_546
	O2        Lu1       2.23672(4) 1_555   1_554
	O2        Lu1       2.23672(4) 1_555   3_546
	O2        Lu1       2.23672(4) 1_555   3_556
	O2        Lu1       2.23672(4) 1_555   1_454
	O2        F3        2.65497(10) 1_555   1_555
	O2        F3        2.65497(10) 1_555   1_554
	O2        O2        2.72140(6) 1_555   3_455
	O2        O2        2.72140(6) 1_555   3_545
	O2        O2        2.72140(6) 1_555   3_555
	O2        O2        2.72140(6) 1_555   3_445
	F3        Lu1       2.44902(5) 1_555   3_556
	F3        Lu1       2.44902(5) 1_555   1_455
	F3        Lu1       2.44902(5) 1_555   1_555
	F3        Lu1       2.44902(5) 1_555   3_546
	F3        O2        2.65497(10) 1_555   1_555
	F3        O2        2.65497(10) 1_555   1_556
	F3        F3        2.72140(6) 1_555   3_456
	F3        F3        2.72140(6) 1_555   3_546
	F3        F3        2.72140(6) 1_555   3_556
	F3        F3        2.72140(6) 1_555   3_446
	loop_
		_geom_angle_atom_site_label_1
		_geom_angle_atom_site_label_2
		_geom_angle_atom_site_label_3
		_geom_angle
		_geom_angle_site_symmetry_1
		_geom_angle_site_symmetry_2
		_geom_angle_site_symmetry_3
	O2        Lu1       O2         74.9400(10)  3_546 1_555   1_556
	O2        Lu1       O2         74.9400(10)  1_656 1_555   3_546
	O2        Lu1       O2         118.707(2)  1_656 1_555   1_556
	O2        Lu1       O2         74.9400(10)  3_556 1_555   1_656
	O2        Lu1       O2         118.707(2)  3_556 1_555   3_546
	O2        Lu1       O2         74.9400(10)  3_556 1_555   1_556
	F3        Lu1       O2         108.3786(12)  1_655 1_555   3_556
	F3        Lu1       O2         68.856(2)  1_655 1_555   1_656
	F3        Lu1       O2         108.3786(12)  1_655 1_555   3_546
	F3        Lu1       O2         172.43633(12)  1_655 1_555   1_556
	F3        Lu1       F3         67.5053(13)  3_556 1_555   1_655
	F3        Lu1       O2         68.856(2)  3_556 1_555   3_556
	F3        Lu1       O2         108.3786(12)  3_556 1_555   1_656
	F3        Lu1       O2         172.43633(12)  3_556 1_555   3_546
	F3        Lu1       O2         108.3786(12)  3_556 1_555   1_556
	F3        Lu1       F3         67.5053(13)  1_555 1_555   3_556
	F3        Lu1       F3         103.580(3)  1_555 1_555   1_655
	F3        Lu1       O2         108.3786(12)  1_555 1_555   3_556
	F3        Lu1       O2         172.43633(12)  1_555 1_555   1_656
	F3        Lu1       O2         108.3786(12)  1_555 1_555   3_546
	F3        Lu1       O2         68.856(2)  1_555 1_555   1_556
	F3        Lu1       F3         67.5053(13)  3_546 1_555   1_555
	F3        Lu1       F3         103.580(3)  3_546 1_555   3_556
	F3        Lu1       F3         67.5053(13)  3_546 1_555   1_655
	F3        Lu1       O2         172.43633(12)  3_546 1_555   3_556
	F3        Lu1       O2         108.3786(12)  3_546 1_555   1_656
	F3        Lu1       O2         68.856(2)  3_546 1_555   3_546
	F3        Lu1       O2         108.3786(12)  3_546 1_555   1_556
	Lu1       O2        Lu1        105.0600(10)  3_546 1_555   1_554
	Lu1       O2        Lu1        118.707(2)  3_556 1_555   3_546
	Lu1       O2        Lu1        105.0600(10)  3_556 1_555   1_554
	Lu1       O2        Lu1        105.0600(10)  1_454 1_555   3_556
	Lu1       O2        Lu1        105.0600(10)  1_454 1_555   3_546
	Lu1       O2        Lu1        118.707(2)  1_454 1_555   1_554
	F3        O2        Lu1        120.6463(11)  1_555 1_555   1_454
	F3        O2        Lu1        59.3537(11)  1_555 1_555   3_556
	F3        O2        Lu1        59.3537(11)  1_555 1_555   3_546
	F3        O2        Lu1        120.6463(11)  1_555 1_555   1_554
	F3        O2        F3         180.000   1_554 1_555   1_555
	F3        O2        Lu1        59.3537(11)  1_554 1_555   1_454
	F3        O2        Lu1        120.6463(11)  1_554 1_555   3_556
	F3        O2        Lu1        120.6463(11)  1_554 1_555   3_546
	F3        O2        Lu1        59.3537(11)  1_554 1_555   1_554
	O2        O2        F3         90.000    3_455 1_555   1_554
	O2        O2        F3         90.000    3_455 1_555   1_555
	O2        O2        Lu1        52.5300(5)  3_455 1_555   1_454
	O2        O2        Lu1        52.5300(5)  3_455 1_555   3_556
	O2        O2        Lu1        127.4700(5)  3_455 1_555   3_546
	O2        O2        Lu1        127.4700(5)  3_455 1_555   1_554
	O2        O2        O2         180.000   3_545 1_555   3_455
	O2        O2        F3         90.000    3_545 1_555   1_554
	O2        O2        F3         90.000    3_545 1_555   1_555
	O2        O2        Lu1        127.4700(5)  3_545 1_555   1_454
	O2        O2        Lu1        127.4700(5)  3_545 1_555   3_556
	O2        O2        Lu1        52.5300(5)  3_545 1_555   3_546
	O2        O2        Lu1        52.5300(5)  3_545 1_555   1_554
	O2        O2        O2         90.000    3_555 1_555   3_545
	O2        O2        O2         90.000    3_555 1_555   3_455
	O2        O2        F3         90.000    3_555 1_555   1_554
	O2        O2        F3         90.000    3_555 1_555   1_555
	O2        O2        Lu1        127.4700(5)  3_555 1_555   1_454
	O2        O2        Lu1        52.5300(5)  3_555 1_555   3_556
	O2        O2        Lu1        127.4700(5)  3_555 1_555   3_546
	O2        O2        Lu1        52.5300(5)  3_555 1_555   1_554
	O2        O2        O2         180.000   3_445 1_555   3_555
	O2        O2        O2         90.000    3_445 1_555   3_545
	O2        O2        O2         90.000    3_445 1_555   3_455
	O2        O2        F3         90.000    3_445 1_555   1_554
	O2        O2        F3         90.000    3_445 1_555   1_555
	O2        O2        Lu1        52.5300(5)  3_445 1_555   1_454
	O2        O2        Lu1        127.4700(5)  3_445 1_555   3_556
	O2        O2        Lu1        52.5300(5)  3_445 1_555   3_546
	O2        O2        Lu1        127.4700(5)  3_445 1_555   1_554
	Lu1       F3        Lu1        112.4947(13)  1_455 1_555   3_556
	Lu1       F3        Lu1        103.580(3)  1_555 1_555   1_455
	Lu1       F3        Lu1        112.4947(13)  1_555 1_555   3_556
	Lu1       F3        Lu1        112.4947(13)  3_546 1_555   1_555
	Lu1       F3        Lu1        112.4947(13)  3_546 1_555   1_455
	Lu1       F3        Lu1        103.580(3)  3_546 1_555   3_556
	O2        F3        Lu1        51.7901(13)  1_555 1_555   3_546
	O2        F3        Lu1        128.2099(13)  1_555 1_555   1_555
	O2        F3        Lu1        128.2099(13)  1_555 1_555   1_455
	O2        F3        Lu1        51.7901(13)  1_555 1_555   3_556
	O2        F3        O2         180.000   1_556 1_555   1_555
	O2        F3        Lu1        128.2099(13)  1_556 1_555   3_546
	O2        F3        Lu1        51.7901(13)  1_556 1_555   1_555
	O2        F3        Lu1        51.7901(13)  1_556 1_555   1_455
	O2        F3        Lu1        128.2099(13)  1_556 1_555   3_556
	F3        F3        O2         90.000    3_456 1_555   1_556
	F3        F3        O2         90.000    3_456 1_555   1_555
	F3        F3        Lu1        123.7527(7)  3_456 1_555   3_546
	F3        F3        Lu1        123.7527(7)  3_456 1_555   1_555
	F3        F3        Lu1        56.2473(7)  3_456 1_555   1_455
	F3        F3        Lu1        56.2473(7)  3_456 1_555   3_556
	F3        F3        F3         180.000   3_546 1_555   3_456
	F3        F3        O2         90.000    3_546 1_555   1_556
	F3        F3        O2         90.000    3_546 1_555   1_555
	F3        F3        Lu1        56.2473(7)  3_546 1_555   3_546
	F3        F3        Lu1        56.2473(7)  3_546 1_555   1_555
	F3        F3        Lu1        123.7527(7)  3_546 1_555   1_455
	F3        F3        Lu1        123.7527(7)  3_546 1_555   3_556
	F3        F3        F3         90.000    3_556 1_555   3_546
	F3        F3        F3         90.000    3_556 1_555   3_456
	F3        F3        O2         90.000    3_556 1_555   1_556
	F3        F3        O2         90.000    3_556 1_555   1_555
	F3        F3        Lu1        123.7527(7)  3_556 1_555   3_546
	F3        F3        Lu1        56.2473(7)  3_556 1_555   1_555
	F3        F3        Lu1        123.7527(7)  3_556 1_555   1_455
	F3        F3        Lu1        56.2473(7)  3_556 1_555   3_556
	F3        F3        F3         180.000   3_446 1_555   3_556
	F3        F3        F3         90.000    3_446 1_555   3_546
	F3        F3        F3         90.000    3_446 1_555   3_456
	F3        F3        O2         90.000    3_446 1_555   1_556
	F3        F3        O2         90.000    3_446 1_555   1_555
	F3        F3        Lu1        56.2473(7)  3_446 1_555   3_546
	F3        F3        Lu1        123.7527(7)  3_446 1_555   1_555
	F3        F3        Lu1        56.2473(7)  3_446 1_555   1_455
	F3        F3        Lu1        123.7527(7)  3_446 1_555   3_556
#######	End powder crystal structure	#######


#######	Begin powder diffraction data	#######
data_Lu_O_F_raw.xy_0
_pd_block_id	Lu_O_F_raw.xy_0
_pd_calc_method	Rietveld
_diffrn_radiation_probe	x-ray
_diffrn_radiation_wavelength	1.540562000
_refine_ls_goodness_of_fit_all	3.52479
_pd_proc_ls_prof_R_factor	0.11363
_pd_proc_ls_prof_wR_factor	0.14628
_pd_proc_ls_prof_wR_expected	0.04150
loop_
	_pd_phase_id
	_pd_phase_block_id
	_pd_phase_mass_%
1	LuOF_0	100
loop_
	_refln_index_h
	_refln_index_k
	_refln_index_l
	_pd_refln_phase_id
	_refln_d_spacing
	_refln_F_squared_calc
	_refln_F_squared_meas
   0    0    1 1    5.309932     2.142401     2.298531
   0    0    2 1    2.654966    18.791788    20.351480
   0    0    3 1    1.769977    13.381966    16.930577
   0    0    4 1    1.327483    16.272544    15.493314
   0    0    5 1    1.061986    14.628502    17.075218
   0    0    6 1    0.884989     0.133480     0.134765
   1    0    1 1    3.116193   171.507669   182.454796
   1    0    2 1    2.185407    27.993269    43.447596
   1    0    3 1    1.608070    75.000975    72.999221
   1    0    4 1    1.254930    56.269627    56.645436
   1    0    5 1    1.023727    14.357773    15.194235
   1    0    6 1    0.862480    52.655416    47.435175
   1    1    0 1    2.721397    49.600946    66.793308
   1    1    1 1    2.421851     9.327483     7.011118
   1    1    2 1    1.900396   171.793157   149.140188
   1    1    3 1    1.483760    39.953985    54.883546
   1    1    4 1    1.193105    19.237202    19.598550
   1    1    5 1    0.989326    57.023189    69.152860
   1    1    6 1    0.841606     7.821567     8.158565
   2    0    0 1    1.924319   102.576920    92.966628
   2    0    1 1    1.809179     5.278660     7.457814
   2    0    2 1    1.558097    59.817570    67.021720
   2    0    3 1    1.302715    39.640574    41.294575
   2    0    4 1    1.092704    49.203922    42.383228
   2    0    5 1    0.929792    48.644031    52.958976
   2    1    1 1    1.637298   234.272362   234.519305
   2    1    2 1    1.444232    40.216557    45.324001
   2    1    3 1    1.233942   113.724193    95.291313
   2    1    4 1    1.051158    89.900207    98.781175
   2    1    5 1    0.903790    23.917545    21.777561
   2    2    0 1    1.360699    71.161694    59.243552
   2    2    1 1    1.318109     3.973190     4.247997
   2    2    2 1    1.210926    48.766221    49.160884
   2    2    3 1    1.078765    31.174804    32.482801
   2    2    4 1    0.950198    39.487030    38.647338
   2    2    5 1    0.837187    41.400006    45.602654
   3    0    1 1    1.247001    88.490721    80.099076
   3    0    2 1    1.155099    15.586168    17.067123
   3    0    3 1    1.038731    45.588111    45.453187
   3    0    4 1    0.922498    37.249708    34.523019
   3    1    0 1    1.217046    62.709827    61.666134
   3    1    1 1    1.186285     9.949000     9.824827
   3    1    2 1    1.106344   180.860537   150.513322
   3    1    3 1    1.002848    50.666683    64.122405
   3    1    4 1    0.897088    28.185627    27.620592
   3    2    1 1    1.046485   141.571489   140.145299
   3    2    2 1    0.990374    25.343936    30.396725
   3    2    3 1    0.914065    75.731005    65.242641
   3    3    0 1    0.907132    22.061915    19.683384
   3    3    1 1    0.894178     3.230572     3.265263
   3    3    2 1    0.858409    60.740622    53.623724
   4    0    0 1    0.962159    43.600971    43.518650
   4    0    1 1    0.946742     2.708435     2.724609
   4    0    2 1    0.904590    34.567323    31.321661
   4    0    3 1    0.845334    21.446408    22.687206
   4    1    1 1    0.919335   117.420505   104.048787
   4    1    2 1    0.880593    21.239914    21.411648
   4    2    0 1    0.860581    72.781843    64.155723
   4    2    1 1    0.849497     4.664092     5.002911
loop_
	_pd_meas_2theta_scan
	_pd_proc_intensity_total
	_pd_proc_ls_weight
	_pd_calc_intensity_total
	_pd_proc_intensity_bkg_calc
   5.011000  1300.000000     0.000769   840.645757     0.000000 
   5.028000  1168.000000     0.000856   839.905320     0.000000 
   5.045000  1154.000000     0.000867   839.165707     0.000000 
   5.062000  1204.000000     0.000831   838.426919     0.000000 
   5.079000  1163.000000     0.000860   837.688955     0.000000 
   5.096000  1182.000000     0.000846   836.951814     0.000000 
   5.113000  1139.000000     0.000878   836.215495     0.000000 
   5.130000  1151.000000     0.000869   835.479998     0.000000 
   5.147000  1141.000000     0.000876   834.745322     0.000000 
   5.164000  1104.000000     0.000906   834.011466     0.000000 
   5.181000  1114.000000     0.000898   833.278431     0.000000 
   5.198000  1154.000000     0.000867   832.546214     0.000000 
   5.215000  1177.000000     0.000850   831.814816     0.000000 
   5.232000  1186.000000     0.000843   831.084237     0.000000 
   5.249000  1166.000000     0.000858   830.354474     0.000000 
   5.266000  1124.000000     0.000890   829.625528     0.000000 
   5.283000  1101.000000     0.000908   828.897398     0.000000 
   5.300000  1137.000000     0.000880   828.170083     0.000000 
   5.317000  1099.000000     0.000910   827.443583     0.000000 
   5.334000  1133.000000     0.000883   826.717898     0.000000 
   5.351000  1125.000000     0.000889   825.993025     0.000000 
   5.368000  1095.000000     0.000913   825.268966     0.000000 
   5.385000  1112.000000     0.000899   824.545718     0.000000 
   5.402000  1089.000000     0.000918   823.823282     0.000000 
   5.419000  1076.000000     0.000929   823.101657     0.000000 
   5.436000  1121.000000     0.000892   822.380842     0.000000 
   5.453000  1092.000000     0.000916   821.660837     0.000000 
   5.470010  1042.000000     0.000960   820.941218     0.000000 
   5.487010  1046.000000     0.000956   820.222830     0.000000 
   5.504010  1023.000000     0.000978   819.505250     0.000000 
   5.521010  1072.000000     0.000933   818.788478     0.000000 
   5.538010  1089.000000     0.000918   818.072511     0.000000 
   5.555010  1089.000000     0.000918   817.357351     0.000000 
   5.572010  1074.000000     0.000931   816.642995     0.000000 
   5.589010  1028.000000     0.000973   815.929444     0.000000 
   5.606010  1071.000000     0.000934   815.216697     0.000000 
   5.623010  1061.000000     0.000943   814.504753     0.000000 
   5.640010  1036.000000     0.000965   813.793611     0.000000 
   5.657010  1035.000000     0.000966   813.083272     0.000000 
   5.674010  1004.000000     0.000996   812.373734     0.000000 
   5.691010  1039.000000     0.000962   811.664996     0.000000 
   5.708010   996.000000     0.001004   810.957059     0.000000 
   5.725010   983.000000     0.001017   810.249921     0.000000 
   5.742010  1027.000000     0.000974   809.543582     0.000000 
   5.759010  1010.000000     0.000990   808.838040     0.000000 
   5.776010   969.000000     0.001032   808.133297     0.000000 
   5.793010  1035.000000     0.000966   807.429350     0.000000 
   5.810010  1026.000000     0.000975   806.726200     0.000000 
   5.827010  1052.000000     0.000951   806.023845     0.000000 
   5.844010  1015.000000     0.000985   805.322285     0.000000 
   5.861010  1037.000000     0.000964   804.621519     0.000000 
   5.878010  1020.000000     0.000980   803.921547     0.000000 
   5.895010   947.000000     0.001056   803.222369     0.000000 
   5.912010   958.000000     0.001044   802.523982     0.000000 
   5.929010   951.000000     0.001052   801.826388     0.000000 
   5.946010   923.000000     0.001083   801.129584     0.000000 
   5.963010   977.000000     0.001024   800.433572     0.000000 
   5.980010   990.000000     0.001010   799.738349     0.000000 
   5.997010   954.000000     0.001048   799.043915     0.000000 
   6.014010   996.000000     0.001004   798.350270     0.000000 
   6.031010  1004.000000     0.000996   797.657414     0.000000 
   6.048010  1000.000000     0.001000   796.965344     0.000000 
   6.065010   983.000000     0.001017   796.274062     0.000000 
   6.082010   927.000000     0.001079   795.583565     0.000000 
   6.099010  1000.000000     0.001000   794.893854     0.000000 
   6.116010   910.000000     0.001099   794.204928     0.000000 
   6.133010   923.000000     0.001083   793.516786     0.000000 
   6.150010   949.000000     0.001054   792.829428     0.000000 
   6.167010   947.000000     0.001056   792.142853     0.000000 
   6.184010   951.000000     0.001052   791.457061     0.000000 
   6.201010   934.000000     0.001071   790.772050     0.000000 
   6.218010   911.000000     0.001098   790.087820     0.000000 
   6.235010   916.000000     0.001092   789.404371     0.000000 
   6.252010   922.000000     0.001085   788.721701     0.000000 
   6.269010   936.000000     0.001068   788.039811     0.000000 
   6.286010   908.000000     0.001101   787.358700     0.000000 
   6.303010   936.000000     0.001068   786.678366     0.000000 
   6.320010   910.000000     0.001099   785.998810     0.000000 
   6.337010   895.000000     0.001117   785.320031     0.000000 
   6.354020   886.000000     0.001129   784.641630     0.000000 
   6.371020   907.000000     0.001103   783.964402     0.000000 
   6.388020   895.000000     0.001117   783.287950     0.000000 
   6.405020   884.000000     0.001131   782.612272     0.000000 
   6.422020   864.000000     0.001157   781.937368     0.000000 
   6.439020   889.000000     0.001125   781.263237     0.000000 
   6.456020   897.000000     0.001115   780.589878     0.000000 
   6.473020   877.000000     0.001140   779.917291     0.000000 
   6.490020   865.000000     0.001156   779.245476     0.000000 
   6.507020   869.000000     0.001151   778.574431     0.000000 
   6.524020   889.000000     0.001125   777.904155     0.000000 
   6.541020   863.000000     0.001159   777.234649     0.000000 
   6.558020   870.000000     0.001149   776.565912     0.000000 
   6.575020   871.000000     0.001148   775.897943     0.000000 
   6.592020   867.000000     0.001153   775.230742     0.000000 
   6.609020   883.000000     0.001133   774.564307     0.000000 
   6.626020   904.000000     0.001106   773.898638     0.000000 
   6.643020   895.000000     0.001117   773.233735     0.000000 
   6.660020   914.000000     0.001094   772.569597     0.000000 
   6.677020   895.000000     0.001117   771.906224     0.000000 
   6.694020   855.000000     0.001170   771.243614     0.000000 
   6.711020   878.000000     0.001139   770.581767     0.000000 
   6.728020   854.000000     0.001171   769.920683     0.000000 
   6.745020   881.000000     0.001135   769.260361     0.000000 
   6.762020   907.000000     0.001103   768.600800     0.000000 
   6.779020   839.000000     0.001192   767.942000     0.000000 
   6.796020   852.000000     0.001174   767.283960     0.000000 
   6.813020   845.000000     0.001183   766.626679     0.000000 
   6.830020   882.000000     0.001134   765.970157     0.000000 
   6.847020   835.000000     0.001198   765.314393     0.000000 
   6.864020   868.000000     0.001152   764.659387     0.000000 
   6.881020   871.000000     0.001148   764.005138     0.000000 
   6.898020   818.000000     0.001222   763.351646     0.000000 
   6.915020   822.000000     0.001217   762.698909     0.000000 
   6.932020   798.000000     0.001253   762.046927     0.000000 
   6.949020   817.000000     0.001224   761.395700     0.000000 
   6.966020   868.000000     0.001152   760.745227     0.000000 
   6.983020   770.000000     0.001299   760.095507     0.000000 
   7.000020   837.000000     0.001195   759.446539     0.000000 
   7.017020   835.000000     0.001198   758.798324     0.000000 
   7.034020   828.000000     0.001208   758.150861     0.000000 
   7.051020   824.000000     0.001214   757.504148     0.000000 
   7.068020   798.000000     0.001253   756.858186     0.000000 
   7.085020   814.000000     0.001229   756.212973     0.000000 
   7.102020   815.000000     0.001227   755.568509     0.000000 
   7.119020   808.000000     0.001238   754.924794     0.000000 
   7.136020   797.000000     0.001255   754.281826     0.000000 
   7.153020   802.000000     0.001247   753.639606     0.000000 
   7.170020   828.000000     0.001208   752.998132     0.000000 
   7.187020   792.000000     0.001263   752.357405     0.000000 
   7.204020   809.000000     0.001236   751.717423     0.000000 
   7.221020   799.000000     0.001252   751.078185     0.000000 
   7.238020   789.000000     0.001267   750.439692     0.000000 
   7.255030   810.000000     0.001235   749.801567     0.000000 
   7.272030   804.000000     0.001244   749.164561     0.000000 
   7.289030   772.000000     0.001295   748.528297     0.000000 
   7.306030   788.000000     0.001269   747.892775     0.000000 
   7.323030   769.000000     0.001300   747.257994     0.000000 
   7.340030   798.000000     0.001253   746.623954     0.000000 
   7.357030   797.000000     0.001255   745.990653     0.000000 
   7.374030   774.000000     0.001292   745.358092     0.000000 
   7.391030   780.000000     0.001282   744.726270     0.000000 
   7.408030   780.000000     0.001282   744.095186     0.000000 
   7.425030   769.000000     0.001300   743.464839     0.000000 
   7.442030   767.000000     0.001304   742.835229     0.000000 
   7.459030   774.000000     0.001292   742.206356     0.000000 
   7.476030   787.000000     0.001271   741.578218     0.000000 
   7.493030   789.000000     0.001267   740.950815     0.000000 
   7.510030   767.000000     0.001304   740.324147     0.000000 
   7.527030   753.000000     0.001328   739.698213     0.000000 
   7.544030   757.000000     0.001321   739.073012     0.000000 
   7.561030   736.000000     0.001359   738.448544     0.000000 
   7.578030   733.000000     0.001364   737.824808     0.000000 
   7.595030   771.000000     0.001297   737.201803     0.000000 
   7.612030   808.000000     0.001238   736.579530     0.000000 
   7.629030   776.000000     0.001289   735.957986     0.000000 
   7.646030   718.000000     0.001393   735.337173     0.000000 
   7.663030   760.000000     0.001316   734.717088     0.000000 
   7.680030   766.000000     0.001305   734.097732     0.000000 
   7.697030   792.000000     0.001263   733.479104     0.000000 
   7.714030   724.000000     0.001381   732.861203     0.000000 
   7.731030   716.000000     0.001397   732.244029     0.000000 
   7.748030   722.000000     0.001385   731.627581     0.000000 
   7.765030   692.000000     0.001445   731.011859     0.000000 
   7.782030   775.000000     0.001290   730.396861     0.000000 
   7.799030   765.000000     0.001307   729.782588     0.000000 
   7.816030   746.000000     0.001340   729.169038     0.000000 
   7.833030   773.000000     0.001294   728.556212     0.000000 
   7.850030   762.000000     0.001312   727.944108     0.000000 
   7.867030   729.000000     0.001372   727.332726     0.000000 
   7.884030   720.000000     0.001389   726.722066     0.000000 
   7.901030   754.000000     0.001326   726.112126     0.000000 
   7.918030   716.000000     0.001397   725.502906     0.000000 
   7.935030   716.000000     0.001397   724.894406     0.000000 
   7.952030   772.000000     0.001295   724.286625     0.000000 
   7.969030   763.000000     0.001311   723.679562     0.000000 
   7.986030   732.000000     0.001366   723.073217     0.000000 
   8.003030   800.000000     0.001250   722.467589     0.000000 
   8.020030   789.000000     0.001267   721.862678     0.000000 
   8.037030   722.000000     0.001385   721.258483     0.000000 
   8.054030   728.000000     0.001374   720.655003     0.000000 
   8.071030   687.000000     0.001456   720.052238     0.000000 
   8.088030   690.000000     0.001449   719.450187     0.000000 
   8.105030   703.000000     0.001422   718.848850     0.000000 
   8.122030   731.000000     0.001368   718.248226     0.000000 
   8.139030   744.000000     0.001344   717.648314     0.000000 
   8.156040   687.000000     0.001456   717.048762     0.000000 
   8.173040   703.000000     0.001422   716.450274     0.000000 
   8.190040   679.000000     0.001473   715.852496     0.000000 
   8.207040   707.000000     0.001414   715.255429     0.000000 
   8.224040   709.000000     0.001410   714.659071     0.000000 
   8.241040   686.000000     0.001458   714.063422     0.000000 
   8.258040   714.000000     0.001401   713.468481     0.000000 
   8.275040   680.000000     0.001471   712.874248     0.000000 
   8.292040   699.000000     0.001431   712.280722     0.000000 
   8.309040   709.000000     0.001410   711.687903     0.000000 
   8.326040   685.000000     0.001460   711.095790     0.000000 
   8.343040   691.000000     0.001447   710.504382     0.000000 
   8.360040   699.000000     0.001431   709.913678     0.000000 
   8.377040   744.000000     0.001344   709.323679     0.000000 
   8.394040   773.000000     0.001294   708.734384     0.000000 
   8.411040   710.000000     0.001408   708.145792     0.000000 
   8.428040   695.000000     0.001439   707.557902     0.000000 
   8.445040   732.000000     0.001366   706.970714     0.000000 
   8.462040   731.000000     0.001368   706.384227     0.000000 
   8.479040   716.000000     0.001397   705.798441     0.000000 
   8.496040   693.000000     0.001443   705.213355     0.000000 
   8.513040   711.000000     0.001406   704.628968     0.000000 
   8.530040   703.000000     0.001422   704.045281     0.000000 
   8.547040   680.000000     0.001471   703.462291     0.000000 
   8.564040   683.000000     0.001464   702.880000     0.000000 
   8.581040   702.000000     0.001425   702.298406     0.000000 
   8.598040   695.000000     0.001439   701.717508     0.000000 
   8.615040   701.000000     0.001427   701.137306     0.000000 
   8.632040   697.000000     0.001435   700.557800     0.000000 
   8.649040   703.000000     0.001422   699.978989     0.000000 
   8.666040   739.000000     0.001353   699.400871     0.000000 
   8.683040   700.000000     0.001429   698.823448     0.000000 
   8.700040   743.000000     0.001346   698.246718     0.000000 
   8.717040   693.000000     0.001443   697.670680     0.000000 
   8.734040   664.000000     0.001506   697.095334     0.000000 
   8.751040   727.000000     0.001376   696.520679     0.000000 
   8.768040   682.000000     0.001466   695.946715     0.000000 
   8.785040   651.000000     0.001536   695.373442     0.000000 
   8.802040   693.000000     0.001443   694.800858     0.000000 
   8.819040   679.000000     0.001473   694.228963     0.000000 
   8.836040   703.000000     0.001422   693.657756     0.000000 
   8.853040   686.000000     0.001458   693.087238     0.000000 
   8.870040   678.000000     0.001475   692.517407     0.000000 
   8.887040   672.000000     0.001488   691.948262     0.000000 
   8.904040   689.000000     0.001451   691.379804     0.000000 
   8.921040   714.000000     0.001401   690.812031     0.000000 
   8.938040   645.000000     0.001550   690.244943     0.000000 
   8.955040   656.000000     0.001524   689.678540     0.000000 
   8.972040   677.000000     0.001477   689.112820     0.000000 
   8.989040   688.000000     0.001453   688.547784     0.000000 
   9.006040   691.000000     0.001447   687.983430     0.000000 
   9.023040   641.000000     0.001560   687.419759     0.000000 
   9.040050   679.000000     0.001473   686.856438     0.000000 
   9.057050   682.000000     0.001466   686.294129     0.000000 
   9.074050   640.000000     0.001563   685.732501     0.000000 
   9.091050   668.000000     0.001497   685.171552     0.000000 
   9.108050   691.000000     0.001447   684.611283     0.000000 
   9.125050   717.000000     0.001395   684.051693     0.000000 
   9.142050   674.000000     0.001484   683.492780     0.000000 
   9.159050   638.000000     0.001567   682.934545     0.000000 
   9.176050   675.000000     0.001481   682.376987     0.000000 
   9.193050   684.000000     0.001462   681.820106     0.000000 
   9.210050   675.000000     0.001481   681.263900     0.000000 
   9.227050   707.000000     0.001414   680.708369     0.000000 
   9.244050   674.000000     0.001484   680.153513     0.000000 
   9.261050   642.000000     0.001558   679.599332     0.000000 
   9.278050   674.000000     0.001484   679.045823     0.000000 
   9.295050   668.000000     0.001497   678.492988     0.000000 
   9.312050   668.000000     0.001497   677.940825     0.000000 
   9.329050   662.000000     0.001511   677.389334     0.000000 
   9.346050   643.000000     0.001555   676.838514     0.000000 
   9.363050   623.000000     0.001605   676.288364     0.000000 
   9.380050   662.000000     0.001511   675.738885     0.000000 
   9.397050   700.000000     0.001429   675.190075     0.000000 
   9.414050   633.000000     0.001580   674.641935     0.000000 
   9.431050   627.000000     0.001595   674.094462     0.000000 
   9.448050   637.000000     0.001570   673.547658     0.000000 
   9.465050   645.000000     0.001550   673.001520     0.000000 
   9.482050   640.000000     0.001563   672.456050     0.000000 
   9.499050   637.000000     0.001570   671.911245     0.000000 
   9.516050   630.000000     0.001587   671.367106     0.000000 
   9.533050   652.000000     0.001534   670.823632     0.000000 
   9.550050   618.000000     0.001618   670.280822     0.000000 
   9.567050   611.000000     0.001637   669.738677     0.000000 
   9.584050   645.000000     0.001550   669.197194     0.000000 
   9.601050   684.000000     0.001462   668.656374     0.000000 
   9.618050   659.000000     0.001517   668.116217     0.000000 
   9.635050   624.000000     0.001603   667.576721     0.000000 
   9.652050   654.000000     0.001529   667.037886     0.000000 
   9.669050   663.000000     0.001508   666.499711     0.000000 
   9.686050   694.000000     0.001441   665.962196     0.000000 
   9.703050   678.000000     0.001475   665.425341     0.000000 
   9.720050   653.000000     0.001531   664.889144     0.000000 
   9.737050   676.000000     0.001479   664.353606     0.000000 
   9.754050   625.000000     0.001600   663.818725     0.000000 
   9.771050   652.000000     0.001534   663.284501     0.000000 
   9.788050   619.000000     0.001616   662.750934     0.000000 
   9.805050   681.000000     0.001468   662.218023     0.000000 
   9.822050   622.000000     0.001608   661.685767     0.000000 
   9.839050   576.000000     0.001736   661.154166     0.000000 
   9.856050   643.000000     0.001555   660.623219     0.000000 
   9.873050   655.000000     0.001527   660.092926     0.000000 
   9.890050   642.000000     0.001558   659.563286     0.000000 
   9.907050   638.000000     0.001567   659.034299     0.000000 
   9.924050   595.000000     0.001681   658.505963     0.000000 
   9.941060   641.000000     0.001560   657.977969     0.000000 
   9.958060   614.000000     0.001629   657.450936     0.000000 
   9.975060   608.000000     0.001645   656.924554     0.000000 
   9.992060   605.000000     0.001653   656.398822     0.000000 
  10.009060   635.000000     0.001575   655.873738     0.000000 
  10.026060   653.000000     0.001531   655.349304     0.000000 
  10.043060   618.000000     0.001618   654.825517     0.000000 
  10.060060   632.000000     0.001582   654.302378     0.000000 
  10.077060   598.000000     0.001672   653.779886     0.000000 
  10.094060   618.000000     0.001618   653.258041     0.000000 
  10.111060   599.000000     0.001669   652.736841     0.000000 
  10.128060   619.000000     0.001616   652.216286     0.000000 
  10.145060   614.000000     0.001629   651.696377     0.000000 
  10.162060   568.000000     0.001761   651.177111     0.000000 
  10.179060   591.000000     0.001692   650.658490     0.000000 
  10.196060   607.000000     0.001647   650.140511     0.000000 
  10.213060   656.000000     0.001524   649.623175     0.000000 
  10.230060   680.000000     0.001471   649.106481     0.000000 
  10.247060   624.000000     0.001603   648.590428     0.000000 
  10.264060   574.000000     0.001742   648.075016     0.000000 
  10.281060   567.000000     0.001764   647.560245     0.000000 
  10.298060   573.000000     0.001745   647.046113     0.000000 
  10.315060   621.000000     0.001610   646.532620     0.000000 
  10.332060   636.000000     0.001572   646.019766     0.000000 
  10.349060   626.000000     0.001597   645.507551     0.000000 
  10.366060   613.000000     0.001631   644.995972     0.000000 
  10.383060   602.000000     0.001661   644.485031     0.000000 
  10.400060   595.000000     0.001681   643.974726     0.000000 
  10.417060   584.000000     0.001712   643.465057     0.000000 
  10.434060   623.000000     0.001605   642.956024     0.000000 
  10.451060   658.000000     0.001520   642.447625     0.000000 
  10.468060   628.000000     0.001592   641.939861     0.000000 
  10.485060   614.000000     0.001629   641.432730     0.000000 
  10.502060   628.000000     0.001592   640.926232     0.000000 
  10.519060   593.000000     0.001686   640.420367     0.000000 
  10.536060   590.000000     0.001695   639.915134     0.000000 
  10.553060   603.000000     0.001658   639.410532     0.000000 
  10.570060   589.000000     0.001698   638.906562     0.000000 
  10.587060   603.000000     0.001658   638.403222     0.000000 
  10.604060   595.000000     0.001681   637.900511     0.000000 
  10.621060   567.000000     0.001764   637.398430     0.000000 
  10.638060   627.000000     0.001595   636.896978     0.000000 
  10.655060   588.000000     0.001701   636.396154     0.000000 
  10.672060   607.000000     0.001647   635.895957     0.000000 
  10.689060   614.000000     0.001629   635.396388     0.000000 
  10.706060   566.000000     0.001767   634.897445     0.000000 
  10.723060   552.000000     0.001812   634.399128     0.000000 
  10.740060   624.000000     0.001603   633.901437     0.000000 
  10.757060   629.000000     0.001590   633.404371     0.000000 
  10.774060   609.000000     0.001642   632.907929     0.000000 
  10.791060   565.000000     0.001770   632.412111     0.000000 
  10.808060   566.000000     0.001767   631.916916     0.000000 
  10.825060   645.000000     0.001550   631.422344     0.000000 
  10.842070   579.000000     0.001727   630.928103     0.000000 
  10.859070   592.000000     0.001689   630.434775     0.000000 
  10.876070   562.000000     0.001779   629.942068     0.000000 
  10.893070   568.000000     0.001761   629.449982     0.000000 
  10.910070   580.000000     0.001724   628.958516     0.000000 
  10.927070   589.000000     0.001698   628.467669     0.000000 
  10.944070   591.000000     0.001692   627.977441     0.000000 
  10.961070   638.000000     0.001567   627.487832     0.000000 
  10.978070   558.000000     0.001792   626.998840     0.000000 
  10.995070   592.000000     0.001689   626.510466     0.000000 
  11.012070   578.000000     0.001730   626.022708     0.000000 
  11.029070   625.000000     0.001600   625.535567     0.000000 
  11.046070   611.000000     0.001637   625.049042     0.000000 
  11.063070   596.000000     0.001678   624.563131     0.000000 
  11.080070   585.000000     0.001709   624.077835     0.000000 
  11.097070   564.000000     0.001773   623.593153     0.000000 
  11.114070   575.000000     0.001739   623.109085     0.000000 
  11.131070   594.000000     0.001684   622.625630     0.000000 
  11.148070   595.000000     0.001681   622.142787     0.000000 
  11.165070   590.000000     0.001695   621.660556     0.000000 
  11.182070   552.000000     0.001812   621.178936     0.000000 
  11.199070   564.000000     0.001773   620.697927     0.000000 
  11.216070   590.000000     0.001695   620.217529     0.000000 
  11.233070   569.000000     0.001757   619.737740     0.000000 
  11.250070   576.000000     0.001736   619.258561     0.000000 
  11.267070   563.000000     0.001776   618.779990     0.000000 
  11.284070   577.000000     0.001733   618.302027     0.000000 
  11.301070   591.000000     0.001692   617.824672     0.000000 
  11.318070   589.000000     0.001698   617.347924     0.000000 
  11.335070   586.000000     0.001706   616.871782     0.000000 
  11.352070   538.000000     0.001859   616.396247     0.000000 
  11.369070   545.000000     0.001835   615.921317     0.000000 
  11.386070   551.000000     0.001815   615.446991     0.000000 
  11.403070   557.000000     0.001795   614.973271     0.000000 
  11.420070   594.000000     0.001684   614.500154     0.000000 
  11.437070   583.000000     0.001715   614.027640     0.000000 
  11.454070   564.000000     0.001773   613.555729     0.000000 
  11.471070   573.000000     0.001745   613.084421     0.000000 
  11.488070   545.000000     0.001835   612.613714     0.000000 
  11.505070   532.000000     0.001880   612.143608     0.000000 
  11.522070   537.000000     0.001862   611.674103     0.000000 
  11.539070   561.000000     0.001783   611.205198     0.000000 
  11.556070   593.000000     0.001686   610.736893     0.000000 
  11.573070   576.000000     0.001736   610.269186     0.000000 
  11.590070   590.000000     0.001695   609.802078     0.000000 
  11.607070   583.000000     0.001715   609.335569     0.000000 
  11.624070   593.000000     0.001686   608.869656     0.000000 
  11.641070   580.000000     0.001724   608.404341     0.000000 
  11.658070   564.000000     0.001773   607.939622     0.000000 
  11.675070   583.000000     0.001715   607.475499     0.000000 
  11.692070   595.000000     0.001681   607.011971     0.000000 
  11.709070   545.000000     0.001835   606.549038     0.000000 
  11.726080   523.000000     0.001912   606.086427     0.000000 
  11.743080   552.000000     0.001812   605.624682     0.000000 
  11.760080   577.000000     0.001733   605.163531     0.000000 
  11.777080   546.000000     0.001832   604.702972     0.000000 
  11.794080   512.000000     0.001953   604.243005     0.000000 
  11.811080   564.000000     0.001773   603.783630     0.000000 
  11.828080   541.000000     0.001848   603.324846     0.000000 
  11.845080   545.000000     0.001835   602.866653     0.000000 
  11.862080   534.000000     0.001873   602.409050     0.000000 
  11.879080   582.000000     0.001718   601.952036     0.000000 
  11.896080   599.000000     0.001669   601.495611     0.000000 
  11.913080   549.000000     0.001821   601.039775     0.000000 
  11.930080   602.000000     0.001661   600.584526     0.000000 
  11.947080   584.000000     0.001712   600.129865     0.000000 
  11.964080   567.000000     0.001764   599.675791     0.000000 
  11.981080   545.000000     0.001835   599.222303     0.000000 
  11.998080   556.000000     0.001799   598.769401     0.000000 
  12.015080   553.000000     0.001808   598.317085     0.000000 
  12.032080   567.000000     0.001764   597.865353     0.000000 
  12.049080   595.000000     0.001681   597.414205     0.000000 
  12.066080   577.000000     0.001733   596.963641     0.000000 
  12.083080   586.000000     0.001706   596.513661     0.000000 
  12.100080   557.000000     0.001795   596.064263     0.000000 
  12.117080   572.000000     0.001748   595.615447     0.000000 
  12.134080   532.000000     0.001880   595.167213     0.000000 
  12.151080   581.000000     0.001721   594.719559     0.000000 
  12.168080   570.000000     0.001754   594.272487     0.000000 
  12.185080   577.000000     0.001733   593.825995     0.000000 
  12.202080   541.000000     0.001848   593.380082     0.000000 
  12.219080   546.000000     0.001832   592.934748     0.000000 
  12.236080   565.000000     0.001770   592.489993     0.000000 
  12.253080   573.000000     0.001745   592.045815     0.000000 
  12.270080   585.000000     0.001709   591.602216     0.000000 
  12.287080   555.000000     0.001802   591.159193     0.000000 
  12.304080   535.000000     0.001869   590.716746     0.000000 
  12.321080   544.000000     0.001838   590.274876     0.000000 
  12.338080   551.000000     0.001815   589.833580     0.000000 
  12.355080   552.000000     0.001812   589.392860     0.000000 
  12.372080   557.000000     0.001795   588.952714     0.000000 
  12.389080   556.000000     0.001799   588.513142     0.000000 
  12.406080   539.000000     0.001855   588.074143     0.000000 
  12.423080   545.000000     0.001835   587.635717     0.000000 
  12.440080   541.000000     0.001848   587.197863     0.000000 
  12.457080   527.000000     0.001898   586.760581     0.000000 
  12.474080   523.000000     0.001912   586.323871     0.000000 
  12.491080   514.000000     0.001946   585.887731     0.000000 
  12.508080   537.000000     0.001862   585.452161     0.000000 
  12.525080   550.000000     0.001818   585.017161     0.000000 
  12.542080   550.000000     0.001818   584.582730     0.000000 
  12.559080   553.000000     0.001808   584.148867     0.000000 
  12.576080   562.000000     0.001779   583.715573     0.000000 
  12.593080   525.000000     0.001905   583.282847     0.000000 
  12.610080   528.000000     0.001894   582.850687     0.000000 
  12.627090   555.000000     0.001802   582.418841     0.000000 
  12.644090   552.000000     0.001812   581.987814     0.000000 
  12.661090   530.000000     0.001887   581.557353     0.000000 
  12.678090   537.000000     0.001862   581.127457     0.000000 
  12.695090   537.000000     0.001862   580.698126     0.000000 
  12.712090   557.000000     0.001795   580.269359     0.000000 
  12.729090   538.000000     0.001859   579.841155     0.000000 
  12.746090   487.000000     0.002053   579.413514     0.000000 
  12.763090   497.000000     0.002012   578.986436     0.000000 
  12.780090   560.000000     0.001786   578.559920     0.000000 
  12.797090   503.000000     0.001988   578.133965     0.000000 
  12.814090   523.000000     0.001912   577.708571     0.000000 
  12.831090   538.000000     0.001859   577.283738     0.000000 
  12.848090   548.000000     0.001825   576.859464     0.000000 
  12.865090   579.000000     0.001727   576.435750     0.000000 
  12.882090   519.000000     0.001927   576.012595     0.000000 
  12.899090   528.000000     0.001894   575.589998     0.000000 
  12.916090   554.000000     0.001805   575.167960     0.000000 
  12.933090   528.000000     0.001894   574.746478     0.000000 
  12.950090   530.000000     0.001887   574.325553     0.000000 
  12.967090   502.000000     0.001992   573.905185     0.000000 
  12.984090   525.000000     0.001905   573.485373     0.000000 
  13.001090   524.000000     0.001908   573.066116     0.000000 
  13.018090   527.000000     0.001898   572.647413     0.000000 
  13.035090   483.000000     0.002070   572.229266     0.000000 
  13.052090   508.000000     0.001969   571.811671     0.000000 
  13.069090   538.000000     0.001859   571.394631     0.000000 
  13.086090   503.000000     0.001988   570.978143     0.000000 
  13.103090   540.000000     0.001852   570.562207     0.000000 
  13.120090   531.000000     0.001883   570.146823     0.000000 
  13.137090   512.000000     0.001953   569.731990     0.000000 
  13.154090   552.000000     0.001812   569.317708     0.000000 
  13.171090   530.000000     0.001887   568.903977     0.000000 
  13.188090   535.000000     0.001869   568.490795     0.000000 
  13.205090   543.000000     0.001842   568.078162     0.000000 
  13.222090   518.000000     0.001931   567.666079     0.000000 
  13.239090   530.000000     0.001887   567.254543     0.000000 
  13.256090   530.000000     0.001887   566.843555     0.000000 
  13.273090   515.000000     0.001942   566.433115     0.000000 
  13.290090   503.000000     0.001988   566.023221     0.000000 
  13.307090   510.000000     0.001961   565.613873     0.000000 
  13.324090   500.000000     0.002000   565.205071     0.000000 
  13.341090   517.000000     0.001934   564.796815     0.000000 
  13.358090   532.000000     0.001880   564.389103     0.000000 
  13.375090   505.000000     0.001980   563.981935     0.000000 
  13.392090   498.000000     0.002008   563.575311     0.000000 
  13.409090   488.000000     0.002049   563.169230     0.000000 
  13.426090   514.000000     0.001946   562.763692     0.000000 
  13.443090   506.000000     0.001976   562.358696     0.000000 
  13.460090   506.000000     0.001976   561.954242     0.000000 
  13.477090   514.000000     0.001946   561.550329     0.000000 
  13.494090   495.000000     0.002020   561.146957     0.000000 
  13.511090   485.000000     0.002062   560.744125     0.000000 
  13.528100   486.000000     0.002058   560.341596     0.000000 
  13.545100   506.000000     0.001976   559.939843     0.000000 
  13.562100   485.000000     0.002062   559.538629     0.000000 
  13.579100   490.000000     0.002041   559.137953     0.000000 
  13.596100   498.000000     0.002008   558.737815     0.000000 
  13.613100   502.000000     0.001992   558.338214     0.000000 
  13.630100   550.000000     0.001818   557.939150     0.000000 
  13.647100   526.000000     0.001901   557.540622     0.000000 
  13.664100   522.000000     0.001916   557.142630     0.000000 
  13.681100   515.000000     0.001942   556.745173     0.000000 
  13.698100   504.000000     0.001984   556.348250     0.000000 
  13.715100   518.000000     0.001931   555.951862     0.000000 
  13.732100   474.000000     0.002110   555.556008     0.000000 
  13.749100   500.000000     0.002000   555.160687     0.000000 
  13.766100   517.000000     0.001934   554.765898     0.000000 
  13.783100   491.000000     0.002037   554.371642     0.000000 
  13.800100   454.000000     0.002203   553.977917     0.000000 
  13.817100   498.000000     0.002008   553.584724     0.000000 
  13.834100   533.000000     0.001876   553.192062     0.000000 
  13.851100   529.000000     0.001890   552.799930     0.000000 
  13.868100   491.000000     0.002037   552.408327     0.000000 
  13.885100   513.000000     0.001949   552.017254     0.000000 
  13.902100   492.000000     0.002033   551.626710     0.000000 
  13.919100   538.000000     0.001859   551.236694     0.000000 
  13.936100   511.000000     0.001957   550.847205     0.000000 
  13.953100   516.000000     0.001938   550.458244     0.000000 
  13.970100   493.000000     0.002028   550.069810     0.000000 
  13.987100   502.000000     0.001992   549.681902     0.000000 
  14.004100   493.000000     0.002028   549.294520     0.000000 
  14.021100   464.000000     0.002155   548.907663     0.000000 
  14.038100   505.000000     0.001980   548.521331     0.000000 
  14.055100   480.000000     0.002083   548.135524     0.000000 
  14.072100   486.000000     0.002058   547.750240     0.000000 
  14.089100   520.000000     0.001923   547.365480     0.000000 
  14.106100   513.000000     0.001949   546.981242     0.000000 
  14.123100   520.000000     0.001923   546.597527     0.000000 
  14.140100   467.000000     0.002141   546.214334     0.000000 
  14.157100   465.000000     0.002151   545.831662     0.000000 
  14.174100   480.000000     0.002083   545.449511     0.000000 
  14.191100   492.000000     0.002033   545.067881     0.000000 
  14.208100   531.000000     0.001883   544.686770     0.000000 
  14.225100   520.000000     0.001923   544.306179     0.000000 
  14.242100   500.000000     0.002000   543.926107     0.000000 
  14.259100   499.000000     0.002004   543.546553     0.000000 
  14.276100   477.000000     0.002096   543.167518     0.000000 
  14.293100   505.000000     0.001980   542.788999     0.000000 
  14.310100   495.000000     0.002020   542.835850     0.000000 
  14.327100   473.000000     0.002114   542.464513     0.000000 
  14.344100   502.000000     0.001992   542.093827     0.000000 
  14.361100   502.000000     0.001992   541.723795     0.000000 
  14.378100   480.000000     0.002083   541.354420     0.000000 
  14.395100   469.000000     0.002132   540.985706     0.000000 
  14.412110   493.000000     0.002028   540.617441     0.000000 
  14.429110   508.000000     0.001969   540.250063     0.000000 
  14.446110   479.000000     0.002088   539.883357     0.000000 
  14.463110   489.000000     0.002045   539.517330     0.000000 
  14.480110   509.000000     0.001965   539.151984     0.000000 
  14.497110   499.000000     0.002004   538.787327     0.000000 
  14.514110   489.000000     0.002045   538.423362     0.000000 
  14.531110   474.000000     0.002110   538.060094     0.000000 
  14.548110   484.000000     0.002066   537.697529     0.000000 
  14.565110   499.000000     0.002004   537.335674     0.000000 
  14.582110   503.000000     0.001988   536.974533     0.000000 
  14.599110   534.000000     0.001873   536.614113     0.000000 
  14.616110   488.000000     0.002049   536.254421     0.000000 
  14.633110   486.000000     0.002058   535.895463     0.000000 
  14.650110   454.000000     0.002203   535.537246     0.000000 
  14.667110   483.000000     0.002070   535.179779     0.000000 
  14.684110   470.000000     0.002128   534.823068     0.000000 
  14.701110   517.000000     0.001934   534.467122     0.000000 
  14.718110   493.000000     0.002028   534.111949     0.000000 
  14.735110   516.000000     0.001938   533.757559     0.000000 
  14.752110   478.000000     0.002092   533.403960     0.000000 
  14.769110   446.000000     0.002242   533.051162     0.000000 
  14.786110   500.000000     0.002000   532.699176     0.000000 
  14.803110   505.000000     0.001980   532.348012     0.000000 
  14.820110   517.000000     0.001934   531.997680     0.000000 
  14.837110   500.000000     0.002000   531.648195     0.000000 
  14.854110   481.000000     0.002079   531.299566     0.000000 
  14.871110   476.000000     0.002101   530.951808     0.000000 
  14.888110   477.000000     0.002096   530.604932     0.000000 
  14.905110   508.000000     0.001969   530.258956     0.000000 
  14.922110   441.000000     0.002268   529.913892     0.000000 
  14.939110   490.000000     0.002041   529.569757     0.000000 
  14.956110   487.000000     0.002053   529.226566     0.000000 
  14.973110   430.000000     0.002326   528.884338     0.000000 
  14.990110   464.000000     0.002155   528.543089     0.000000 
  15.007110   451.000000     0.002217   528.202842     0.000000 
  15.024110   480.000000     0.002083   527.863613     0.000000 
  15.041110   478.000000     0.002092   527.946955     0.000000 
  15.058110   470.000000     0.002128   527.618455     0.000000 
  15.075110   480.000000     0.002083   527.291312     0.000000 
  15.092110   489.000000     0.002045   526.965556     0.000000 
  15.109110   476.000000     0.002101   526.641231     0.000000 
  15.126110   470.000000     0.002128   526.318371     0.000000 
  15.143110   471.000000     0.002123   525.997024     0.000000 
  15.160110   442.000000     0.002262   525.677229     0.000000 
  15.177110   476.000000     0.002101   525.359039     0.000000 
  15.194110   493.000000     0.002028   525.042498     0.000000 
  15.211110   489.000000     0.002045   524.727665     0.000000 
  15.228110   471.000000     0.002123   524.414588     0.000000 
  15.245110   431.000000     0.002320   524.103335     0.000000 
  15.262110   466.000000     0.002146   523.793959     0.000000 
  15.279110   482.000000     0.002075   523.486536     0.000000 
  15.296110   452.000000     0.002212   523.181128     0.000000 
  15.313120   481.000000     0.002079   522.877640     0.000000 
  15.330120   495.000000     0.002020   522.576500     0.000000 
  15.347120   477.000000     0.002096   522.277621     0.000000 
  15.364120   483.000000     0.002070   521.981087     0.000000 
  15.381120   499.000000     0.002004   521.687000     0.000000 
  15.398120   468.000000     0.002137   521.395454     0.000000 
  15.415120   452.000000     0.002212   521.106567     0.000000 
  15.432120   464.000000     0.002155   520.820446     0.000000 
  15.449120   448.000000     0.002232   520.537226     0.000000 
  15.466120   467.000000     0.002141   520.257027     0.000000 
  15.483120   467.000000     0.002141   519.980005     0.000000 
  15.500120   466.000000     0.002146   519.706298     0.000000 
  15.517120   469.000000     0.002132   519.436083     0.000000 
  15.534120   462.000000     0.002165   519.169523     0.000000 
  15.551120   454.000000     0.002203   518.906818     0.000000 
  15.568120   456.000000     0.002193   518.648157     0.000000 
  15.585120   465.000000     0.002151   518.393774     0.000000 
  15.602120   454.000000     0.002203   518.143886     0.000000 
  15.619120   455.000000     0.002198   517.898766     0.000000 
  15.636120   493.000000     0.002028   517.658666     0.000000 
  15.653120   482.000000     0.002075   517.423905     0.000000 
  15.670120   517.000000     0.001934   517.194779     0.000000 
  15.687120   495.000000     0.002020   516.971662     0.000000 
  15.704120   461.000000     0.002169   516.754903     0.000000 
  15.721120   420.000000     0.002381   516.544941     0.000000 
  15.738120   461.000000     0.002169   516.342192     0.000000 
  15.755120   466.000000     0.002146   516.147174     0.000000 
  15.772120   484.000000     0.002066   515.960384     0.000000 
  15.789120   484.000000     0.002066   515.782440     0.000000 
  15.806120   431.000000     0.002320   515.613936     0.000000 
  15.823120   517.000000     0.001934   515.455614     0.000000 
  15.840120   447.000000     0.002237   515.308192     0.000000 
  15.857120   512.000000     0.001953   515.172565     0.000000 
  15.874120   490.000000     0.002041   515.049607     0.000000 
  15.891120   544.000000     0.001838   514.940405     0.000000 
  15.908120   514.000000     0.001946   514.846032     0.000000 
  15.925120   458.000000     0.002183   514.767818     0.000000 
  15.942120   443.000000     0.002257   514.707090     0.000000 
  15.959120   471.000000     0.002123   514.665494     0.000000 
  15.976120   453.000000     0.002208   514.644682     0.000000 
  15.993120   414.000000     0.002415   514.646709     0.000000 
  16.010120   471.000000     0.002123   514.673655     0.000000 
  16.027120   481.000000     0.002079   514.728110     0.000000 
  16.044120   455.000000     0.002198   514.812721     0.000000 
  16.061120   483.000000     0.002070   514.930788     0.000000 
  16.078120   465.000000     0.002151   515.085720     0.000000 
  16.095120   456.000000     0.002193   515.281775     0.000000 
  16.112120   470.000000     0.002128   515.523395     0.000000 
  16.129120   491.000000     0.002037   515.816149     0.000000 
  16.146120   488.000000     0.002049   516.165912     0.000000 
  16.163120   496.000000     0.002016   516.580069     0.000000 
  16.180120   499.000000     0.002004   517.066515     0.000000 
  16.197130   514.000000     0.001946   517.635567     0.000000 
  16.214130   533.000000     0.001876   518.297354     0.000000 
  16.231130   528.000000     0.001894   519.065853     0.000000 
  16.248130   527.000000     0.001898   519.956113     0.000000 
  16.265130   514.000000     0.001946   520.987297     0.000000 
  16.282130   533.000000     0.001876   522.180863     0.000000 
  16.299130   540.000000     0.001852   523.564446     0.000000 
  16.316130   555.000000     0.001802   525.169788     0.000000 
  16.333130   568.000000     0.001761   527.038897     0.000000 
  16.350130   568.000000     0.001761   529.223014     0.000000 
  16.367130   585.000000     0.001709   531.795278     0.000000 
  16.384130   591.000000     0.001692   534.857219     0.000000 
  16.401130   592.000000     0.001689   538.573391     0.000000 
  16.418130   664.000000     0.001506   543.206799     0.000000 
  16.435130   691.000000     0.001447   549.215777     0.000000 
  16.452130   689.000000     0.001451   557.355210     0.000000 
  16.469130   718.000000     0.001393   568.887801     0.000000 
  16.486130   771.000000     0.001297   585.730952     0.000000 
  16.503130   776.000000     0.001289   610.731640     0.000000 
  16.520130   848.000000     0.001179   647.593733     0.000000 
  16.537130   943.000000     0.001060   700.900292     0.000000 
  16.554130  1072.000000     0.000933   775.283157     0.000000 
  16.571130  1102.000000     0.000907   874.819092     0.000000 
  16.588130  1193.000000     0.000838  1001.257436     0.000000 
  16.605130  1286.000000     0.000778  1153.002265     0.000000 
  16.622130  1367.000000     0.000732  1323.118267     0.000000 
  16.639130  1527.000000     0.000655  1498.364973     0.000000 
  16.656130  1644.000000     0.000608  1658.411584     0.000000 
  16.673130  1780.000000     0.000562  1777.960986     0.000000 
  16.690130  1823.000000     0.000549  1834.863955     0.000000 
  16.707130  1913.000000     0.000523  1818.627545     0.000000 
  16.724130  1925.000000     0.000519  1734.613364     0.000000 
  16.741130  1732.000000     0.000577  1598.731045     0.000000 
  16.758130  1452.000000     0.000689  1433.171490     0.000000 
  16.775130  1386.000000     0.000722  1259.918933     0.000000 
  16.792130  1211.000000     0.000826  1096.407089     0.000000 
  16.809130  1098.000000     0.000911   953.654431     0.000000 
  16.826130   919.000000     0.001088   836.513330     0.000000 
  16.843130   809.000000     0.001236   745.500854     0.000000 
  16.860130   781.000000     0.001280   677.873642     0.000000 
  16.877130   732.000000     0.001366   629.567991     0.000000 
  16.894130   653.000000     0.001531   595.938350     0.000000 
  16.911130   631.000000     0.001585   572.889999     0.000000 
  16.928130   581.000000     0.001721   557.010010     0.000000 
  16.945130   595.000000     0.001681   545.848009     0.000000 
  16.962130   584.000000     0.001712   537.686931     0.000000 
  16.979130   536.000000     0.001866   531.449525     0.000000 
  16.996130   531.000000     0.001883   526.457666     0.000000 
  17.013130   521.000000     0.001919   522.316568     0.000000 
  17.030130   525.000000     0.001905   518.783048     0.000000 
  17.047130   479.000000     0.002088   515.712805     0.000000 
  17.064130   482.000000     0.002075   513.007973     0.000000 
  17.081130   458.000000     0.002183   510.603716     0.000000 
  17.098140   473.000000     0.002114   508.447970     0.000000 
  17.115140   489.000000     0.002045   506.505975     0.000000 
  17.132140   488.000000     0.002049   504.744461     0.000000 
  17.149140   489.000000     0.002045   503.138959     0.000000 
  17.166140   496.000000     0.002016   501.667690     0.000000 
  17.183140   476.000000     0.002101   500.313713     0.000000 
  17.200140   472.000000     0.002119   499.061641     0.000000 
  17.217140   458.000000     0.002183   497.899413     0.000000 
  17.234140   468.000000     0.002137   496.815905     0.000000 
  17.251140   477.000000     0.002096   495.802355     0.000000 
  17.268140   479.000000     0.002088   494.850563     0.000000 
  17.285140   458.000000     0.002183   493.954046     0.000000 
  17.302140   447.000000     0.002237   493.106656     0.000000 
  17.319140   456.000000     0.002193   492.303521     0.000000 
  17.336140   450.000000     0.002222   491.539957     0.000000 
  17.353140   457.000000     0.002188   490.812249     0.000000 
  17.370140   461.000000     0.002169   490.116780     0.000000 
  17.387140   455.000000     0.002198   489.450680     0.000000 
  17.404140   466.000000     0.002146   488.811120     0.000000 
  17.421140   452.000000     0.002212   488.195855     0.000000 
  17.438140   436.000000     0.002294   487.602648     0.000000 
  17.455140   459.000000     0.002179   487.029722     0.000000 
  17.472140   469.000000     0.002132   486.475291     0.000000 
  17.489140   476.000000     0.002101   485.937936     0.000000 
  17.506140   465.000000     0.002151   485.416214     0.000000 
  17.523140   454.000000     0.002203   484.908980     0.000000 
  17.540140   443.000000     0.002257   484.415062     0.000000 
  17.557140   429.000000     0.002331   483.933528     0.000000 
  17.574140   475.000000     0.002105   483.463415     0.000000 
  17.591140   458.000000     0.002183   483.003960     0.000000 
  17.608140   439.000000     0.002278   482.554367     0.000000 
  17.625140   438.000000     0.002283   482.114005     0.000000 
  17.642140   465.000000     0.002151   481.682210     0.000000 
  17.659140   456.000000     0.002193   481.258461     0.000000 
  17.676140   457.000000     0.002188   480.842199     0.000000 
  17.693140   471.000000     0.002123   480.432987     0.000000 
  17.710140   449.000000     0.002227   480.030356     0.000000 
  17.727140   478.000000     0.002092   479.633938     0.000000 
  17.744140   434.000000     0.002304   479.243334     0.000000 
  17.761140   492.000000     0.002033   478.858232     0.000000 
  17.778140   425.000000     0.002353   478.478293     0.000000 
  17.795140   450.000000     0.002222   478.103252     0.000000 
  17.812140   457.000000     0.002188   477.732817     0.000000 
  17.829140   464.000000     0.002155   477.366763     0.000000 
  17.846140   444.000000     0.002252   477.004837     0.000000 
  17.863140   452.000000     0.002212   476.646847     0.000000 
  17.880140   435.000000     0.002299   476.292574     0.000000 
  17.897140   461.000000     0.002169   475.941851     0.000000 
  17.914140   405.000000     0.002469   475.594489     0.000000 
  17.931140   406.000000     0.002463   475.250344     0.000000 
  17.948140   415.000000     0.002410   474.909251     0.000000 
  17.965140   422.000000     0.002370   474.571083     0.000000 
  17.982140   469.000000     0.002132   474.235696     0.000000 
  17.999150   445.000000     0.002247   473.902786     0.000000 
  18.016150   438.000000     0.002283   473.572618     0.000000 
  18.033150   438.000000     0.002283   473.244897     0.000000 
  18.050150   461.000000     0.002169   472.919513     0.000000 
  18.067150   438.000000     0.002283   472.596382     0.000000 
  18.084150   407.000000     0.002457   472.275403     0.000000 
  18.101150   390.000000     0.002564   471.956503     0.000000 
  18.118150   435.000000     0.002299   471.639594     0.000000 
  18.135150   435.000000     0.002299   471.324610     0.000000 
  18.152150   423.000000     0.002364   471.011474     0.000000 
  18.169150   416.000000     0.002404   470.700125     0.000000 
  18.186150   419.000000     0.002387   470.390496     0.000000 
  18.203150   431.000000     0.002320   470.082534     0.000000 
  18.220150   449.000000     0.002227   469.776176     0.000000 
  18.237150   428.000000     0.002336   469.471376     0.000000 
  18.254150   438.000000     0.002283   469.168079     0.000000 
  18.271150   443.000000     0.002257   468.866243     0.000000 
  18.288150   448.000000     0.002232   468.565818     0.000000 
  18.305150   432.000000     0.002315   468.266766     0.000000 
  18.322150   423.000000     0.002364   467.969042     0.000000 
  18.339150   437.000000     0.002288   467.672614     0.000000 
  18.356150   426.000000     0.002347   467.377439     0.000000 
  18.373150   408.000000     0.002451   467.083488     0.000000 
  18.390150   395.000000     0.002532   466.790724     0.000000 
  18.407150   398.000000     0.002513   466.499119     0.000000 
  18.424150   426.000000     0.002347   465.795774     0.000000 
  18.441150   403.000000     0.002481   465.514511     0.000000 
  18.458150   407.000000     0.002457   465.234083     0.000000 
  18.475150   422.000000     0.002370   464.954475     0.000000 
  18.492150   426.000000     0.002347   464.675670     0.000000 
  18.509150   449.000000     0.002227   464.397655     0.000000 
  18.526150   444.000000     0.002252   464.120412     0.000000 
  18.543150   444.000000     0.002252   463.843931     0.000000 
  18.560150   437.000000     0.002288   463.568196     0.000000 
  18.577150   422.000000     0.002370   463.293197     0.000000 
  18.594150   420.000000     0.002381   463.018918     0.000000 
  18.611150   436.000000     0.002294   462.745351     0.000000 
  18.628150   429.000000     0.002331   462.472483     0.000000 
  18.645150   437.000000     0.002288   462.200305     0.000000 
  18.662150   442.000000     0.002262   461.928805     0.000000 
  18.679150   437.000000     0.002288   461.657974     0.000000 
  18.696150   432.000000     0.002315   461.387802     0.000000 
  18.713150   402.000000     0.002488   461.118281     0.000000 
  18.730150   382.000000     0.002618   460.849401     0.000000 
  18.747150   487.000000     0.002053   460.581156     0.000000 
  18.764150   428.000000     0.002336   460.313535     0.000000 
  18.781150   449.000000     0.002227   460.046532     0.000000 
  18.798150   409.000000     0.002445   459.780139     0.000000 
  18.815150   411.000000     0.002433   459.514349     0.000000 
  18.832150   417.000000     0.002398   459.249156     0.000000 
  18.849150   404.000000     0.002475   458.984552     0.000000 
  18.866150   413.000000     0.002421   458.720531     0.000000 
  18.883160   428.000000     0.002336   458.456933     0.000000 
  18.900160   435.000000     0.002299   458.194060     0.000000 
  18.917160   412.000000     0.002427   457.931754     0.000000 
  18.934160   419.000000     0.002387   457.670006     0.000000 
  18.951160   409.000000     0.002445   457.408814     0.000000 
  18.968160   449.000000     0.002227   457.148170     0.000000 
  18.985160   451.000000     0.002217   456.888071     0.000000 
  19.002160   412.000000     0.002427   456.628511     0.000000 
  19.019160   451.000000     0.002217   456.369487     0.000000 
  19.036160   429.000000     0.002331   456.110992     0.000000 
  19.053160   451.000000     0.002217   455.853024     0.000000 
  19.070160   415.000000     0.002410   455.176489     0.000000 
  19.087160   387.000000     0.002584   454.925456     0.000000 
  19.104160   417.000000     0.002398   454.674813     0.000000 
  19.121160   433.000000     0.002309   454.424560     0.000000 
  19.138160   413.000000     0.002421   454.174696     0.000000 
  19.155160   384.000000     0.002604   453.925221     0.000000 
  19.172160   397.000000     0.002519   453.676135     0.000000 
  19.189160   417.000000     0.002398   453.427436     0.000000 
  19.206160   413.000000     0.002421   453.179126     0.000000 
  19.223160   410.000000     0.002439   452.931203     0.000000 
  19.240160   412.000000     0.002427   452.683666     0.000000 
  19.257160   428.000000     0.002336   452.436516     0.000000 
  19.274160   432.000000     0.002315   452.189753     0.000000 
  19.291160   412.000000     0.002427   451.943375     0.000000 
  19.308160   410.000000     0.002439   451.697382     0.000000 
  19.325160   431.000000     0.002320   451.451774     0.000000 
  19.342160   435.000000     0.002299   451.206550     0.000000 
  19.359160   424.000000     0.002358   450.961710     0.000000 
  19.376160   411.000000     0.002433   450.717254     0.000000 
  19.393160   437.000000     0.002288   450.473181     0.000000 
  19.410160   441.000000     0.002268   450.229491     0.000000 
  19.427160   430.000000     0.002326   449.986183     0.000000 
  19.444160   422.000000     0.002370   449.743258     0.000000 
  19.461160   428.000000     0.002336   449.500713     0.000000 
  19.478160   430.000000     0.002326   449.258550     0.000000 
  19.495160   427.000000     0.002342   449.016768     0.000000 
  19.512160   428.000000     0.002336   448.775366     0.000000 
  19.529160   424.000000     0.002358   448.534344     0.000000 
  19.546160   414.000000     0.002415   448.293702     0.000000 
  19.563160   393.000000     0.002545   448.053438     0.000000 
  19.580160   399.000000     0.002506   447.813554     0.000000 
  19.597160   426.000000     0.002347   447.574047     0.000000 
  19.614160   443.000000     0.002257   447.334919     0.000000 
  19.631160   409.000000     0.002445   447.096168     0.000000 
  19.648160   413.000000     0.002421   446.857794     0.000000 
  19.665160   414.000000     0.002415   446.619797     0.000000 
  19.682160   398.000000     0.002513   446.382176     0.000000 
  19.699160   382.000000     0.002618   446.144931     0.000000 
  19.716160   434.000000     0.002304   445.908061     0.000000 
  19.733160   411.000000     0.002433   445.671566     0.000000 
  19.750160   397.000000     0.002519   445.435446     0.000000 
  19.767160   428.000000     0.002336   445.199701     0.000000 
  19.784170   368.000000     0.002717   444.964191     0.000000 
  19.801170   384.000000     0.002604   444.729193     0.000000 
  19.818170   395.000000     0.002532   444.494568     0.000000 
  19.835170   398.000000     0.002513   444.260315     0.000000 
  19.852170   409.000000     0.002445   444.026435     0.000000 
  19.869170   412.000000     0.002427   443.792927     0.000000 
  19.886170   439.000000     0.002278   443.559790     0.000000 
  19.903170   402.000000     0.002488   443.327024     0.000000 
  19.920170   393.000000     0.002545   443.094629     0.000000 
  19.937170   401.000000     0.002494   442.862604     0.000000 
  19.954170   418.000000     0.002392   442.630949     0.000000 
  19.971170   423.000000     0.002364   442.399663     0.000000 
  19.988170   416.000000     0.002404   442.168747     0.000000 
  20.005170   396.000000     0.002525   441.938199     0.000000 
  20.022170   435.000000     0.002299   441.708019     0.000000 
  20.039170   425.000000     0.002353   441.478207     0.000000 
  20.056170   418.000000     0.002392   441.248763     0.000000 
  20.073170   415.000000     0.002410   441.019685     0.000000 
  20.090170   387.000000     0.002584   440.790974     0.000000 
  20.107170   399.000000     0.002506   440.562630     0.000000 
  20.124170   411.000000     0.002433   440.334651     0.000000 
  20.141170   419.000000     0.002387   440.107038     0.000000 
  20.158170   420.000000     0.002381   439.879790     0.000000 
  20.175170   434.000000     0.002304   439.652906     0.000000 
  20.192170   416.000000     0.002404   439.426387     0.000000 
  20.209170   399.000000     0.002506   439.200231     0.000000 
  20.226170   374.000000     0.002674   438.974439     0.000000 
  20.243170   391.000000     0.002558   438.749011     0.000000 
  20.260170   402.000000     0.002488   438.523944     0.000000 
  20.277170   397.000000     0.002519   438.299240     0.000000 
  20.294170   398.000000     0.002513   438.074898     0.000000 
  20.311170   395.000000     0.002532   437.850918     0.000000 
  20.328170   408.000000     0.002451   437.627298     0.000000 
  20.345170   399.000000     0.002506   437.404039     0.000000 
  20.362170   421.000000     0.002375   437.181141     0.000000 
  20.379170   415.000000     0.002410   436.958602     0.000000 
  20.396170   399.000000     0.002506   436.736423     0.000000 
  20.413170   419.000000     0.002387   436.514603     0.000000 
  20.430170   408.000000     0.002451   436.293142     0.000000 
  20.447170   397.000000     0.002519   436.072039     0.000000 
  20.464170   414.000000     0.002415   435.851294     0.000000 
  20.481170   402.000000     0.002488   435.630907     0.000000 
  20.498170   398.000000     0.002513   435.410876     0.000000 
  20.515170   409.000000     0.002445   435.191203     0.000000 
  20.532170   386.000000     0.002591   434.971885     0.000000 
  20.549170   401.000000     0.002494   434.752924     0.000000 
  20.566170   370.000000     0.002703   434.534319     0.000000 
  20.583170   413.000000     0.002421   434.316068     0.000000 
  20.600170   438.000000     0.002283   434.098173     0.000000 
  20.617170   419.000000     0.002387   433.880631     0.000000 
  20.634170   412.000000     0.002427   433.663444     0.000000 
  20.651170   391.000000     0.002558   433.446611     0.000000 
  20.668170   396.000000     0.002525   433.230130     0.000000 
  20.685180   404.000000     0.002475   433.013876     0.000000 
  20.702180   439.000000     0.002278   432.798101     0.000000 
  20.719180   418.000000     0.002392   432.582678     0.000000 
  20.736180   416.000000     0.002404   432.367607     0.000000 
  20.753180   398.000000     0.002513   432.152887     0.000000 
  20.770180   391.000000     0.002558   431.938518     0.000000 
  20.787180   341.000000     0.002933   431.724500     0.000000 
  20.804180   360.000000     0.002778   431.510832     0.000000 
  20.821180   405.000000     0.002469   431.297513     0.000000 
  20.838180   399.000000     0.002506   431.084544     0.000000 
  20.855180   373.000000     0.002681   430.871924     0.000000 
  20.872180   375.000000     0.002667   430.659652     0.000000 
  20.889180   353.000000     0.002833   430.447729     0.000000 
  20.906180   367.000000     0.002725   430.236153     0.000000 
  20.923180   380.000000     0.002632   430.024925     0.000000 
  20.940180   384.000000     0.002604   429.814044     0.000000 
  20.957180   395.000000     0.002532   429.603509     0.000000 
  20.974180   392.000000     0.002551   429.393321     0.000000 
  20.991180   383.000000     0.002611   429.183479     0.000000 
  21.008180   384.000000     0.002604   428.973982     0.000000 
  21.025180   397.000000     0.002519   428.764830     0.000000 
  21.042180   406.000000     0.002463   428.556023     0.000000 
  21.059180   408.000000     0.002451   428.347560     0.000000 
  21.076180   430.000000     0.002326   428.139441     0.000000 
  21.093180   412.000000     0.002427   427.931666     0.000000 
  21.110180   396.000000     0.002525   427.724234     0.000000 
  21.127180   405.000000     0.002469   427.517145     0.000000 
  21.144180   412.000000     0.002427   427.310398     0.000000 
  21.161180   384.000000     0.002604   427.103993     0.000000 
  21.178180   384.000000     0.002604   426.897930     0.000000 
  21.195180   381.000000     0.002625   426.692208     0.000000 
  21.212180   400.000000     0.002500   426.486827     0.000000 
  21.229180   394.000000     0.002538   426.281786     0.000000 
  21.246180   362.000000     0.002762   426.077086     0.000000 
  21.263180   362.000000     0.002762   425.872725     0.000000 
  21.280180   379.000000     0.002639   425.668704     0.000000 
  21.297180   381.000000     0.002625   425.465021     0.000000 
  21.314180   403.000000     0.002481   425.261678     0.000000 
  21.331180   414.000000     0.002415   425.058672     0.000000 
  21.348180   396.000000     0.002525   424.856004     0.000000 
  21.365180   366.000000     0.002732   424.653674     0.000000 
  21.382180   396.000000     0.002525   424.451681     0.000000 
  21.399180   408.000000     0.002451   424.250024     0.000000 
  21.416180   374.000000     0.002674   424.048704     0.000000 
  21.433180   388.000000     0.002577   423.847720     0.000000 
  21.450180   389.000000     0.002571   423.647071     0.000000 
  21.467180   371.000000     0.002695   423.446758     0.000000 
  21.484180   388.000000     0.002577   423.246779     0.000000 
  21.501180   388.000000     0.002577   423.047135     0.000000 
  21.518180   406.000000     0.002463   422.847824     0.000000 
  21.535180   409.000000     0.002445   422.648848     0.000000 
  21.552180   385.000000     0.002597   422.450205     0.000000 
  21.569190   390.000000     0.002564   422.251778     0.000000 
  21.586190   361.000000     0.002770   422.053800     0.000000 
  21.603190   372.000000     0.002688   421.856154     0.000000 
  21.620190   417.000000     0.002398   421.658841     0.000000 
  21.637190   414.000000     0.002415   421.461858     0.000000 
  21.654190   396.000000     0.002525   421.265207     0.000000 
  21.671190   387.000000     0.002584   421.068887     0.000000 
  21.688190   374.000000     0.002674   420.872896     0.000000 
  21.705190   368.000000     0.002717   420.677236     0.000000 
  21.722190   380.000000     0.002632   420.481905     0.000000 
  21.739190   385.000000     0.002597   420.286903     0.000000 
  21.756190   388.000000     0.002577   420.092230     0.000000 
  21.773190   367.000000     0.002725   419.897885     0.000000 
  21.790190   415.000000     0.002410   419.703869     0.000000 
  21.807190   385.000000     0.002597   419.510180     0.000000 
  21.824190   375.000000     0.002667   419.316818     0.000000 
  21.841190   368.000000     0.002717   419.123784     0.000000 
  21.858190   403.000000     0.002481   418.931075     0.000000 
  21.875190   377.000000     0.002653   418.738693     0.000000 
  21.892190   391.000000     0.002558   418.546637     0.000000 
  21.909190   380.000000     0.002632   418.354906     0.000000 
  21.926190   357.000000     0.002801   418.163501     0.000000 
  21.943190   370.000000     0.002703   417.972420     0.000000 
  21.960190   379.000000     0.002639   417.781663     0.000000 
  21.977190   381.000000     0.002625   417.591230     0.000000 
  21.994190   402.000000     0.002488   417.401121     0.000000 
  22.011190   395.000000     0.002532   417.211335     0.000000 
  22.028190   372.000000     0.002688   417.021871     0.000000 
  22.045190   385.000000     0.002597   416.832731     0.000000 
  22.062190   392.000000     0.002551   416.643912     0.000000 
  22.079190   390.000000     0.002564   416.455415     0.000000 
  22.096190   394.000000     0.002538   416.267239     0.000000 
  22.113190   376.000000     0.002660   416.079384     0.000000 
  22.130190   370.000000     0.002703   415.891850     0.000000 
  22.147190   402.000000     0.002488   415.704636     0.000000 
  22.164190   384.000000     0.002604   415.517742     0.000000 
  22.181190   357.000000     0.002801   415.331168     0.000000 
  22.198190   366.000000     0.002732   415.144912     0.000000 
  22.215190   375.000000     0.002667   414.958976     0.000000 
  22.232190   377.000000     0.002653   414.773357     0.000000 
  22.249190   380.000000     0.002632   414.588057     0.000000 
  22.266190   394.000000     0.002538   414.403075     0.000000 
  22.283190   379.000000     0.002639   414.218409     0.000000 
  22.300190   401.000000     0.002494   414.034061     0.000000 
  22.317190   395.000000     0.002532   413.850029     0.000000 
  22.334190   353.000000     0.002833   413.666314     0.000000 
  22.351190   389.000000     0.002571   413.482914     0.000000 
  22.368190   395.000000     0.002532   413.299829     0.000000 
  22.385190   378.000000     0.002646   413.117060     0.000000 
  22.402190   359.000000     0.002786   412.934606     0.000000 
  22.419190   368.000000     0.002717   412.752465     0.000000 
  22.436190   396.000000     0.002525   412.570639     0.000000 
  22.453190   389.000000     0.002571   412.389127     0.000000 
  22.470200   368.000000     0.002717   412.207821     0.000000 
  22.487200   367.000000     0.002725   412.026935     0.000000 
  22.504200   359.000000     0.002786   411.846361     0.000000 
  22.521200   389.000000     0.002571   411.666100     0.000000 
  22.538200   373.000000     0.002681   411.486150     0.000000 
  22.555200   397.000000     0.002519   411.306512     0.000000 
  22.572200   368.000000     0.002717   411.127185     0.000000 
  22.589200   361.000000     0.002770   410.948168     0.000000 
  22.606200   355.000000     0.002817   410.769462     0.000000 
  22.623200   374.000000     0.002674   410.591066     0.000000 
  22.640200   363.000000     0.002755   410.412980     0.000000 
  22.657200   341.000000     0.002933   410.235203     0.000000 
  22.674200   364.000000     0.002747   410.057735     0.000000 
  22.691200   399.000000     0.002506   409.880575     0.000000 
  22.708200   421.000000     0.002375   409.703724     0.000000 
  22.725200   362.000000     0.002762   409.527180     0.000000 
  22.742200   360.000000     0.002778   409.350944     0.000000 
  22.759200   379.000000     0.002639   409.175015     0.000000 
  22.776200   341.000000     0.002933   408.999393     0.000000 
  22.793200   353.000000     0.002833   408.824077     0.000000 
  22.810200   379.000000     0.002639   408.649067     0.000000 
  22.827200   385.000000     0.002597   408.474363     0.000000 
  22.844200   409.000000     0.002445   408.299964     0.000000 
  22.861200   390.000000     0.002564   408.125870     0.000000 
  22.878200   385.000000     0.002597   407.952080     0.000000 
  22.895200   409.000000     0.002445   407.778595     0.000000 
  22.912200   380.000000     0.002632   407.605414     0.000000 
  22.929200   399.000000     0.002506   407.432536     0.000000 
  22.946200   381.000000     0.002625   407.259962     0.000000 
  22.963200   361.000000     0.002770   407.087690     0.000000 
  22.980200   363.000000     0.002755   406.915721     0.000000 
  22.997200   372.000000     0.002688   406.744054     0.000000 
  23.014200   363.000000     0.002755   406.572688     0.000000 
  23.031200   356.000000     0.002809   406.401624     0.000000 
  23.048200   391.000000     0.002558   406.230861     0.000000 
  23.065200   429.000000     0.002331   406.060399     0.000000 
  23.082200   403.000000     0.002481   405.890237     0.000000 
  23.099200   365.000000     0.002740   405.720375     0.000000 
  23.116200   362.000000     0.002762   405.550812     0.000000 
  23.133200   368.000000     0.002717   405.381549     0.000000 
  23.150200   388.000000     0.002577   405.212585     0.000000 
  23.167200   398.000000     0.002513   405.043919     0.000000 
  23.184200   397.000000     0.002519   404.875551     0.000000 
  23.201200   404.000000     0.002475   404.707481     0.000000 
  23.218200   406.000000     0.002463   404.539709     0.000000 
  23.235200   405.000000     0.002469   404.372234     0.000000 
  23.252200   414.000000     0.002415   404.205055     0.000000 
  23.269200   433.000000     0.002309   404.038173     0.000000 
  23.286200   440.000000     0.002273   403.871587     0.000000 
  23.303200   439.000000     0.002278   403.705297     0.000000 
  23.320200   469.000000     0.002132   403.539302     0.000000 
  23.337200   495.000000     0.002020   403.373602     0.000000 
  23.354210   499.000000     0.002004   403.208099     0.000000 
  23.371210   529.000000     0.001890   403.042989     0.000000 
  23.388210   575.000000     0.001739   402.878172     0.000000 
  23.405210   618.000000     0.001618   402.713648     0.000000 
  23.422210   646.000000     0.001548   402.549418     0.000000 
  23.439210   637.000000     0.001570   402.385481     0.000000 
  23.456210   681.000000     0.001468   402.221837     0.000000 
  23.473210   650.000000     0.001538   402.058484     0.000000 
  23.490210   636.000000     0.001572   401.895424     0.000000 
  23.507210   700.000000     0.001429   401.732655     0.000000 
  23.524210   683.000000     0.001464   401.570177     0.000000 
  23.541210   687.000000     0.001456   401.407990     0.000000 
  23.558210   664.000000     0.001506   401.246093     0.000000 
  23.575210   638.000000     0.001567   401.084486     0.000000 
  23.592210   670.000000     0.001493   400.923170     0.000000 
  23.609210   637.000000     0.001570   400.762142     0.000000 
  23.626210   614.000000     0.001629   400.601404     0.000000 
  23.643210   594.000000     0.001684   400.440954     0.000000 
  23.660210   548.000000     0.001825   400.280793     0.000000 
  23.677210   461.000000     0.002169   400.120920     0.000000 
  23.694210   454.000000     0.002203   399.961334     0.000000 
  23.711210   426.000000     0.002347   399.802036     0.000000 
  23.728210   414.000000     0.002415   399.643024     0.000000 
  23.745210   452.000000     0.002212   399.484299     0.000000 
  23.762210   422.000000     0.002370   399.325861     0.000000 
  23.779210   461.000000     0.002169   399.167708     0.000000 
  23.796210   393.000000     0.002545   399.009841     0.000000 
  23.813210   387.000000     0.002584   398.852260     0.000000 
  23.830210   382.000000     0.002618   398.694963     0.000000 
  23.847210   432.000000     0.002315   398.537951     0.000000 
  23.864210   405.000000     0.002469   398.381222     0.000000 
  23.881210   387.000000     0.002584   398.224778     0.000000 
  23.898210   387.000000     0.002584   398.068617     0.000000 
  23.915210   374.000000     0.002674   397.912740     0.000000 
  23.932210   356.000000     0.002809   397.757145     0.000000 
  23.949210   363.000000     0.002755   397.601833     0.000000 
  23.966210   385.000000     0.002597   397.446803     0.000000 
  23.983210   387.000000     0.002584   397.292054     0.000000 
  24.000210   359.000000     0.002786   397.137588     0.000000 
  24.017210   361.000000     0.002770   396.983402     0.000000 
  24.034210   349.000000     0.002865   396.829497     0.000000 
  24.051210   364.000000     0.002747   396.675872     0.000000 
  24.068210   382.000000     0.002618   396.522528     0.000000 
  24.085210   360.000000     0.002778   396.369463     0.000000 
  24.102210   340.000000     0.002941   396.216678     0.000000 
  24.119210   383.000000     0.002611   396.064171     0.000000 
  24.136210   385.000000     0.002597   395.911944     0.000000 
  24.153210   386.000000     0.002591   395.759995     0.000000 
  24.170210   371.000000     0.002695   395.608323     0.000000 
  24.187210   369.000000     0.002710   395.456930     0.000000 
  24.204210   355.000000     0.002817   395.305814     0.000000 
  24.221210   363.000000     0.002755   395.154975     0.000000 
  24.238210   382.000000     0.002618   395.004412     0.000000 
  24.255220   380.000000     0.002632   394.854038     0.000000 
  24.272220   379.000000     0.002639   394.704028     0.000000 
  24.289220   378.000000     0.002646   394.554293     0.000000 
  24.306220   383.000000     0.002611   394.404834     0.000000 
  24.323220   378.000000     0.002646   394.255650     0.000000 
  24.340220   373.000000     0.002681   394.106741     0.000000 
  24.357220   380.000000     0.002632   393.958106     0.000000 
  24.374220   369.000000     0.002710   393.809745     0.000000 
  24.391220   351.000000     0.002849   393.661657     0.000000 
  24.408220   396.000000     0.002525   393.513843     0.000000 
  24.425220   396.000000     0.002525   393.366302     0.000000 
  24.442220   379.000000     0.002639   393.219033     0.000000 
  24.459220   381.000000     0.002625   393.072037     0.000000 
  24.476220   394.000000     0.002538   392.925312     0.000000 
  24.493220   407.000000     0.002457   392.778859     0.000000 
  24.510220   372.000000     0.002688   392.632678     0.000000 
  24.527220   362.000000     0.002762   392.486767     0.000000 
  24.544220   381.000000     0.002625   392.341127     0.000000 
  24.561220   396.000000     0.002525   392.195757     0.000000 
  24.578220   405.000000     0.002469   392.050657     0.000000 
  24.595220   376.000000     0.002660   391.905827     0.000000 
  24.612220   366.000000     0.002732   391.761266     0.000000 
  24.629220   387.000000     0.002584   391.616974     0.000000 
  24.646220   407.000000     0.002457   391.472950     0.000000 
  24.663220   355.000000     0.002817   391.329195     0.000000 
  24.680220   421.000000     0.002375   391.185708     0.000000 
  24.697220   352.000000     0.002841   391.042488     0.000000 
  24.714220   340.000000     0.002941   390.899536     0.000000 
  24.731220   394.000000     0.002538   390.756850     0.000000 
  24.748220   417.000000     0.002398   390.614431     0.000000 
  24.765220   359.000000     0.002786   390.472278     0.000000 
  24.782220   361.000000     0.002770   390.330391     0.000000 
  24.799220   386.000000     0.002591   390.188770     0.000000 
  24.816220   366.000000     0.002732   390.047414     0.000000 
  24.833220   404.000000     0.002475   389.906323     0.000000 
  24.850220   388.000000     0.002577   389.765497     0.000000 
  24.867220   390.000000     0.002564   389.624934     0.000000 
  24.884220   406.000000     0.002463   389.484636     0.000000 
  24.901220   392.000000     0.002551   389.344602     0.000000 
  24.918220   382.000000     0.002618   389.204830     0.000000 
  24.935220   383.000000     0.002611   389.065322     0.000000 
  24.952220   385.000000     0.002597   388.926076     0.000000 
  24.969220   388.000000     0.002577   388.787092     0.000000 
  24.986220   407.000000     0.002457   388.648371     0.000000 
  25.003220   399.000000     0.002506   388.509911     0.000000 
  25.020220   392.000000     0.002551   388.371712     0.000000 
  25.037220   408.000000     0.002451   388.233774     0.000000 
  25.054220   401.000000     0.002494   388.096097     0.000000 
  25.071220   369.000000     0.002710   387.958680     0.000000 
  25.088220   367.000000     0.002725   387.821523     0.000000 
  25.105220   368.000000     0.002717   387.684626     0.000000 
  25.122220   362.000000     0.002762   387.547988     0.000000 
  25.139220   377.000000     0.002653   387.411610     0.000000 
  25.156230   387.000000     0.002584   387.275409     0.000000 
  25.173230   387.000000     0.002584   387.139548     0.000000 
  25.190230   388.000000     0.002577   387.003944     0.000000 
  25.207230   396.000000     0.002525   386.868598     0.000000 
  25.224230   393.000000     0.002545   386.733509     0.000000 
  25.241230   383.000000     0.002611   386.598678     0.000000 
  25.258230   399.000000     0.002506   386.464103     0.000000 
  25.275230   388.000000     0.002577   386.329784     0.000000 
  25.292230   370.000000     0.002703   386.195722     0.000000 
  25.309230   339.000000     0.002950   386.061915     0.000000 
  25.326230   372.000000     0.002688   385.928364     0.000000 
  25.343230   383.000000     0.002611   385.795068     0.000000 
  25.360230   342.000000     0.002924   385.662026     0.000000 
  25.377230   362.000000     0.002762   385.529239     0.000000 
  25.394230   402.000000     0.002488   385.396706     0.000000 
  25.411230   385.000000     0.002597   385.264427     0.000000 
  25.428230   395.000000     0.002532   385.132401     0.000000 
  25.445230   359.000000     0.002786   385.000629     0.000000 
  25.462230   391.000000     0.002558   384.869109     0.000000 
  25.479230   394.000000     0.002538   384.737842     0.000000 
  25.496230   370.000000     0.002703   384.606827     0.000000 
  25.513230   413.000000     0.002421   384.476063     0.000000 
  25.530230   413.000000     0.002421   384.345552     0.000000 
  25.547230   422.000000     0.002370   384.215291     0.000000 
  25.564230   396.000000     0.002525   384.085281     0.000000 
  25.581230   408.000000     0.002451   383.955522     0.000000 
  25.598230   400.000000     0.002500   383.826014     0.000000 
  25.615230   376.000000     0.002660   395.070689     0.000000 
  25.632230   417.000000     0.002398   395.071224     0.000000 
  25.649230   441.000000     0.002268   395.074242     0.000000 
  25.666230   416.000000     0.002404   395.079777     0.000000 
  25.683230   370.000000     0.002703   395.087897     0.000000 
  25.700230   370.000000     0.002703   395.098641     0.000000 
  25.717230   387.000000     0.002584   395.112081     0.000000 
  25.734230   396.000000     0.002525   395.128256     0.000000 
  25.751230   372.000000     0.002688   395.147243     0.000000 
  25.768230   397.000000     0.002519   395.169085     0.000000 
  25.785230   449.000000     0.002227   395.193862     0.000000 
  25.802230   450.000000     0.002222   395.221620     0.000000 
  25.819230   437.000000     0.002288   395.252445     0.000000 
  25.836230   458.000000     0.002183   395.286385     0.000000 
  25.853230   451.000000     0.002217   395.323531     0.000000 
  25.870230   440.000000     0.002273   395.363935     0.000000 
  25.887230   401.000000     0.002494   395.407692     0.000000 
  25.904230   384.000000     0.002604   395.454859     0.000000 
  25.921230   393.000000     0.002545   395.505537     0.000000 
  25.938230   413.000000     0.002421   395.559786     0.000000 
  25.955230   377.000000     0.002653   395.617714     0.000000 
  25.972230   398.000000     0.002513   395.679385     0.000000 
  25.989230   398.000000     0.002513   395.744913     0.000000 
  26.006230   375.000000     0.002667   395.814367     0.000000 
  26.023230   363.000000     0.002755   395.887870     0.000000 
  26.040240   373.000000     0.002681   395.965540     0.000000 
  26.057240   369.000000     0.002710   396.047417     0.000000 
  26.074240   387.000000     0.002584   396.133625     0.000000 
  26.091240   405.000000     0.002469   396.224301     0.000000 
  26.108240   425.000000     0.002353   396.319529     0.000000 
  26.125240   413.000000     0.002421   396.419459     0.000000 
  26.142240   397.000000     0.002519   396.524179     0.000000 
  26.159240   390.000000     0.002564   396.633849     0.000000 
  26.176240   373.000000     0.002681   396.748565     0.000000 
  26.193240   374.000000     0.002674   396.868495     0.000000 
  26.210240   386.000000     0.002591   396.993746     0.000000 
  26.227240   402.000000     0.002488   397.124497     0.000000 
  26.244240   400.000000     0.002500   397.260860     0.000000 
  26.261240   394.000000     0.002538   397.403029     0.000000 
  26.278240   373.000000     0.002681   397.551126     0.000000 
  26.295240   379.000000     0.002639   397.705357     0.000000 
  26.312240   382.000000     0.002618   397.865854     0.000000 
  26.329240   387.000000     0.002584   398.032838     0.000000 
  26.346240   384.000000     0.002604   398.206452     0.000000 
  26.363240   389.000000     0.002571   398.386933     0.000000 
  26.380240   380.000000     0.002632   398.574435     0.000000 
  26.397240   386.000000     0.002591   398.769214     0.000000 
  26.414240   367.000000     0.002725   398.971437     0.000000 
  26.431240   376.000000     0.002660   399.181377     0.000000 
  26.448240   386.000000     0.002591   399.399217     0.000000 
  26.465240   372.000000     0.002688   399.625252     0.000000 
  26.482240   380.000000     0.002632   399.859679     0.000000 
  26.499240   391.000000     0.002558   400.102815     0.000000 
  26.516240   415.000000     0.002410   400.354876     0.000000 
  26.533240   368.000000     0.002717   400.616205     0.000000 
  26.550240   394.000000     0.002538   400.887035     0.000000 
  26.567240   399.000000     0.002506   412.512095     0.000000 
  26.584240   410.000000     0.002439   412.985945     0.000000 
  26.601240   388.000000     0.002577   413.474799     0.000000 
  26.618240   359.000000     0.002786   413.979052     0.000000 
  26.635240   426.000000     0.002347   414.499322     0.000000 
  26.652240   348.000000     0.002874   415.036039     0.000000 
  26.669240   368.000000     0.002717   415.589872     0.000000 
  26.686240   394.000000     0.002538   416.161294     0.000000 
  26.703240   393.000000     0.002545   416.751030     0.000000 
  26.720240   394.000000     0.002538   417.359596     0.000000 
  26.737240   409.000000     0.002445   417.987782     0.000000 
  26.754240   380.000000     0.002632   418.636155     0.000000 
  26.771240   405.000000     0.002469   419.305574     0.000000 
  26.788240   409.000000     0.002445   419.996660     0.000000 
  26.805240   369.000000     0.002710   420.710352     0.000000 
  26.822240   396.000000     0.002525   421.447333     0.000000 
  26.839240   369.000000     0.002710   422.208629     0.000000 
  26.856240   377.000000     0.002653   422.994991     0.000000 
  26.873240   352.000000     0.002841   423.807543     0.000000 
  26.890240   381.000000     0.002625   424.647113     0.000000 
  26.907240   420.000000     0.002381   425.514933     0.000000 
  26.924240   377.000000     0.002653   426.411920     0.000000 
  26.941250   383.000000     0.002611   427.339980     0.000000 
  26.958250   397.000000     0.002519   428.299039     0.000000 
  26.975250   387.000000     0.002584   429.291120     0.000000 
  26.992250   381.000000     0.002625   430.317352     0.000000 
  27.009250   410.000000     0.002439   431.379372     0.000000 
  27.026250   400.000000     0.002500   432.478437     0.000000 
  27.043250   398.000000     0.002513   433.616354     0.000000 
  27.060250   410.000000     0.002439   434.794525     0.000000 
  27.077250   406.000000     0.002463   436.014950     0.000000 
  27.094250   387.000000     0.002584   437.279194     0.000000 
  27.111250   394.000000     0.002538   438.589477     0.000000 
  27.128250   400.000000     0.002500   439.947550     0.000000 
  27.145250   403.000000     0.002481   441.355881     0.000000 
  27.162250   425.000000     0.002353   442.816435     0.000000 
  27.179250   397.000000     0.002519   444.331965     0.000000 
  27.196250   388.000000     0.002577   445.904677     0.000000 
  27.213250   405.000000     0.002469   447.537652     0.000000 
  27.230250   421.000000     0.002375   449.233374     0.000000 
  27.247250   431.000000     0.002320   450.995297     0.000000 
  27.264250   435.000000     0.002299   452.826230     0.000000 
  27.281250   406.000000     0.002463   454.730053     0.000000 
  27.298250   420.000000     0.002381   456.709950     0.000000 
  27.315250   438.000000     0.002283   458.770296     0.000000 
  27.332250   428.000000     0.002336   460.914710     0.000000 
  27.349250   430.000000     0.002326   463.148139     0.000000 
  27.366250   430.000000     0.002326   465.474709     0.000000 
  27.383250   428.000000     0.002336   467.900032     0.000000 
  27.400250   435.000000     0.002299   470.428829     0.000000 
  27.417250   440.000000     0.002273   473.067487     0.000000 
  27.434250   408.000000     0.002451   475.821425     0.000000 
  27.451250   456.000000     0.002193   478.697939     0.000000 
  27.468250   444.000000     0.002252   481.703274     0.000000 
  27.485250   458.000000     0.002183   484.845795     0.000000 
  27.502250   442.000000     0.002262   488.132723     0.000000 
  27.519250   480.000000     0.002083   491.573690     0.000000 
  27.536250   483.000000     0.002070   495.177079     0.000000 
  27.553250   489.000000     0.002045   498.954027     0.000000 
  27.570250   506.000000     0.001976   502.914310     0.000000 
  27.587250   499.000000     0.002004   507.070859     0.000000 
  27.604250   531.000000     0.001883   511.435128     0.000000 
  27.621250   503.000000     0.001988   516.022204     0.000000 
  27.638250   526.000000     0.001901   520.845571     0.000000 
  27.655250   580.000000     0.001724   525.922919     0.000000 
  27.672250   601.000000     0.001664   531.270203     0.000000 
  27.689250   539.000000     0.001855   536.908277     0.000000 
  27.706250   593.000000     0.001686   542.856126     0.000000 
  27.723250   594.000000     0.001684   549.138473     0.000000 
  27.740250   603.000000     0.001658   555.778039     0.000000 
  27.757250   611.000000     0.001637   562.804315     0.000000 
  27.774250   622.000000     0.001608   570.244665     0.000000 
  27.791250   668.000000     0.001497   578.134495     0.000000 
  27.808250   649.000000     0.001541   586.506982     0.000000 
  27.825250   616.000000     0.001623   595.404938     0.000000 
  27.842260   706.000000     0.001416   604.874641     0.000000 
  27.859260   676.000000     0.001479   614.957074     0.000000 
  27.876260   679.000000     0.001473   625.707588     0.000000 
  27.893260   672.000000     0.001488   637.190142     0.000000 
  27.910260   708.000000     0.001412   649.466736     0.000000 
  27.927260   738.000000     0.001355   662.616616     0.000000 
  27.944260   722.000000     0.001385   676.717430     0.000000 
  27.961260   748.000000     0.001337   691.868307     0.000000 
  27.978260   744.000000     0.001344   708.167457     0.000000 
  27.995260   764.000000     0.001309   725.740165     0.000000 
  28.012260   793.000000     0.001261   744.711987     0.000000 
  28.029260   827.000000     0.001209   765.243063     0.000000 
  28.046260   810.000000     0.001235   787.495798     0.000000 
  28.063260   829.000000     0.001206   811.677413     0.000000 
  28.080260   860.000000     0.001163   838.000686     0.000000 
  28.097260   876.000000     0.001142   866.737592     0.000000 
  28.114260   977.000000     0.001024   898.170861     0.000000 
  28.131260  1000.000000     0.001000   932.662824     0.000000 
  28.148260  1007.000000     0.000993   970.596339     0.000000 
  28.165260  1055.000000     0.000948  1012.464489     0.000000 
  28.182260  1145.000000     0.000873  1058.799649     0.000000 
  28.199260  1254.000000     0.000797  1110.297334     0.000000 
  28.216260  1305.000000     0.000766  1167.737756     0.000000 
  28.233260  1373.000000     0.000728  1232.174542     0.000000 
  28.250260  1457.000000     0.000686  1304.872219     0.000000 
  28.267260  1563.000000     0.000640  1387.637117     0.000000 
  28.284260  1708.000000     0.000585  1482.834881     0.000000 
  28.301260  1822.000000     0.000549  1594.028816     0.000000 
  28.318260  2056.000000     0.000486  1726.176533     0.000000 
  28.335260  2314.000000     0.000432  1886.830957     0.000000 
  28.352260  2595.000000     0.000385  2086.502368     0.000000 
  28.369260  2911.000000     0.000344  2340.601761     0.000000 
  28.386260  3290.000000     0.000304  2669.428852     0.000000 
  28.403260  3764.000000     0.000266  3100.578965     0.000000 
  28.420260  4446.000000     0.000225  3667.023122     0.000000 
  28.437260  5071.000000     0.000197  4409.022089     0.000000 
  28.454260  6031.000000     0.000166  5368.089122     0.000000 
  28.471260  7057.000000     0.000142  6587.420042     0.000000 
  28.488260  8463.000000     0.000118  8100.529294     0.000000 
  28.505260  10103.000000     0.000099  9930.076225     0.000000 
  28.522260  11898.000000     0.000084  12071.891736     0.000000 
  28.539260  14056.000000     0.000071  14490.742163     0.000000 
  28.556260  16722.000000     0.000060  17099.706291     0.000000 
  28.573260  19749.000000     0.000051  19749.216628     0.000000 
  28.590260  22870.000000     0.000044  22217.238352     0.000000 
  28.607260  25775.000000     0.000039  24229.922403     0.000000 
  28.624260  27513.000000     0.000036  25540.462699     0.000000 
  28.641260  28805.000000     0.000035  26007.388111     0.000000 
  28.658260  28481.000000     0.000035  25644.942480     0.000000 
  28.675260  27475.000000     0.000036  24553.282507     0.000000 
  28.692260  25305.000000     0.000040  22868.585038     0.000000 
  28.709260  22556.000000     0.000044  20732.488206     0.000000 
  28.726270  19940.000000     0.000050  18316.646213     0.000000 
  28.743270  16888.000000     0.000059  15810.878251     0.000000 
  28.760270  14052.000000     0.000071  13383.100254     0.000000 
  28.777270  11544.000000     0.000087  11156.042026     0.000000 
  28.794270  9254.000000     0.000108  9197.696362     0.000000 
  28.811270  7559.000000     0.000132  7535.376726     0.000000 
  28.828270  6162.000000     0.000162  6162.740384     0.000000 
  28.845270  5032.000000     0.000199  5057.398784     0.000000 
  28.862270  4288.000000     0.000233  4183.587224     0.000000 
  28.879270  3646.000000     0.000274  3504.073947     0.000000 
  28.896270  3197.000000     0.000313  2980.009679     0.000000 
  28.913270  2783.000000     0.000359  2577.790068     0.000000 
  28.930270  2498.000000     0.000400  2267.546349     0.000000 
  28.947270  2235.000000     0.000447  2026.091424     0.000000 
  28.964270  1953.000000     0.000512  1834.845063     0.000000 
  28.981270  1764.000000     0.000567  1680.495250     0.000000 
  28.998270  1638.000000     0.000611  1553.095617     0.000000 
  29.015270  1491.000000     0.000671  1445.897083     0.000000 
  29.032270  1353.000000     0.000739  1354.008967     0.000000 
  29.049270  1321.000000     0.000757  1274.171403     0.000000 
  29.066270  1252.000000     0.000799  1203.970429     0.000000 
  29.083270  1124.000000     0.000890  1141.753533     0.000000 
  29.100270  1094.000000     0.000914  1086.210223     0.000000 
  29.117270  1040.000000     0.000962  1036.393859     0.000000 
  29.134270   982.000000     0.001018   991.493582     0.000000 
  29.151270   974.000000     0.001027   950.895879     0.000000 
  29.168270   910.000000     0.001099   914.046426     0.000000 
  29.185270   875.000000     0.001143   880.515247     0.000000 
  29.202270   850.000000     0.001176   849.901912     0.000000 
  29.219270   830.000000     0.001205   821.892354     0.000000 
  29.236270   847.000000     0.001181   796.188897     0.000000 
  29.253270   808.000000     0.001238   772.556967     0.000000 
  29.270270   744.000000     0.001344   750.771048     0.000000 
  29.287270   720.000000     0.001389   730.652951     0.000000 
  29.304270   707.000000     0.001414   712.029403     0.000000 
  29.321270   721.000000     0.001387   694.763224     0.000000 
  29.338270   718.000000     0.001393   678.719507     0.000000 
  29.355270   696.000000     0.001437   663.791346     0.000000 
  29.372270   650.000000     0.001538   649.872473     0.000000 
  29.389270   649.000000     0.001541   636.878642     0.000000 
  29.406270   612.000000     0.001634   624.725244     0.000000 
  29.423270   650.000000     0.001538   613.345204     0.000000 
  29.440270   614.000000     0.001629   602.670497     0.000000 
  29.457270   670.000000     0.001493   592.647212     0.000000 
  29.474270   612.000000     0.001634   583.220157     0.000000 
  29.491270   604.000000     0.001656   574.345628     0.000000 
  29.508270   618.000000     0.001618   565.978469     0.000000 
  29.525270   577.000000     0.001733   558.082962     0.000000 
  29.542270   604.000000     0.001656   550.621876     0.000000 
  29.559270   595.000000     0.001681   543.565800     0.000000 
  29.576270   550.000000     0.001818   536.883818     0.000000 
  29.593270   533.000000     0.001876   530.551545     0.000000 
  29.610270   565.000000     0.001770   524.543133     0.000000 
  29.627280   562.000000     0.001779   518.834961     0.000000 
  29.644280   593.000000     0.001686   513.412001     0.000000 
  29.661280   595.000000     0.001681   508.253697     0.000000 
  29.678280   563.000000     0.001776   503.341688     0.000000 
  29.695280   610.000000     0.001639   501.129242     0.000000 
  29.712280   550.000000     0.001818   496.691780     0.000000 
  29.729280   531.000000     0.001883   492.458694     0.000000 
  29.746280   502.000000     0.001992   488.416635     0.000000 
  29.763280   522.000000     0.001916   484.555145     0.000000 
  29.780280   508.000000     0.001969   480.862755     0.000000 
  29.797280   495.000000     0.002020   477.330506     0.000000 
  29.814280   510.000000     0.001961   473.948499     0.000000 
  29.831280   505.000000     0.001980   470.709024     0.000000 
  29.848280   497.000000     0.002012   467.603503     0.000000 
  29.865280   506.000000     0.001976   464.625271     0.000000 
  29.882280   505.000000     0.001980   461.766866     0.000000 
  29.899280   480.000000     0.002083   459.022506     0.000000 
  29.916280   472.000000     0.002119   456.385672     0.000000 
  29.933280   495.000000     0.002020   453.851332     0.000000 
  29.950280   518.000000     0.001931   451.413770     0.000000 
  29.967280   483.000000     0.002070   449.068590     0.000000 
  29.984280   466.000000     0.002146   446.810765     0.000000 
  30.001280   478.000000     0.002092   444.636443     0.000000 
  30.018280   473.000000     0.002114   442.541187     0.000000 
  30.035280   476.000000     0.002101   440.521610     0.000000 
  30.052280   510.000000     0.001961   438.573787     0.000000 
  30.069280   498.000000     0.002008   436.694731     0.000000 
  30.086280   482.000000     0.002075   434.880957     0.000000 
  30.103280   456.000000     0.002193   433.129826     0.000000 
  30.120280   455.000000     0.002198   431.438237     0.000000 
  30.137280   478.000000     0.002092   429.803849     0.000000 
  30.154280   495.000000     0.002020   428.223896     0.000000 
  30.171280   470.000000     0.002128   426.696299     0.000000 
  30.188280   473.000000     0.002114   425.218584     0.000000 
  30.205280   474.000000     0.002110   423.788899     0.000000 
  30.222280   483.000000     0.002070   422.405026     0.000000 
  30.239280   503.000000     0.001988   421.065314     0.000000 
  30.256280   484.000000     0.002066   419.767770     0.000000 
  30.273280   468.000000     0.002137   418.510918     0.000000 
  30.290280   467.000000     0.002141   417.292964     0.000000 
  30.307280   480.000000     0.002083   416.112587     0.000000 
  30.324280   490.000000     0.002041   414.968168     0.000000 
  30.341280   490.000000     0.002041   413.858523     0.000000 
  30.358280   478.000000     0.002092   412.782191     0.000000 
  30.375280   500.000000     0.002000   411.738107     0.000000 
  30.392280   506.000000     0.001976   410.724948     0.000000 
  30.409280   480.000000     0.002083   409.741759     0.000000 
  30.426280   465.000000     0.002151   408.787342     0.000000 
  30.443280   445.000000     0.002247   407.860835     0.000000 
  30.460280   482.000000     0.002075   406.961152     0.000000 
  30.477280   484.000000     0.002066   406.087519     0.000000 
  30.494280   443.000000     0.002257   405.238947     0.000000 
  30.511290   417.000000     0.002398   405.302524     0.000000 
  30.528290   424.000000     0.002358   404.511240     0.000000 
  30.545290   469.000000     0.002132   403.742945     0.000000 
  30.562290   426.000000     0.002347   402.996828     0.000000 
  30.579290   440.000000     0.002273   402.272324     0.000000 
  30.596290   458.000000     0.002183   401.568696     0.000000 
  30.613290   439.000000     0.002278   400.885437     0.000000 
  30.630290   398.000000     0.002513   400.221876     0.000000 
  30.647290   445.000000     0.002247   399.577559     0.000000 
  30.664290   456.000000     0.002193   398.951875     0.000000 
  30.681290   451.000000     0.002217   398.344418     0.000000 
  30.698290   451.000000     0.002217   397.754633     0.000000 
  30.715290   381.000000     0.002625   399.650906     0.000000 
  30.732290   407.000000     0.002457   399.132827     0.000000 
  30.749290   427.000000     0.002342   398.632099     0.000000 
  30.766290   450.000000     0.002222   398.148287     0.000000 
  30.783290   440.000000     0.002273   397.681141     0.000000 
  30.800290   437.000000     0.002288   397.230271     0.000000 
  30.817290   427.000000     0.002342   396.795465     0.000000 
  30.834290   429.000000     0.002331   385.154289     0.000000 
  30.851290   444.000000     0.002252   384.926574     0.000000 
  30.868290   431.000000     0.002320   384.710006     0.000000 
  30.885290   438.000000     0.002283   384.504550     0.000000 
  30.902290   410.000000     0.002439   384.310078     0.000000 
  30.919290   405.000000     0.002469   384.126583     0.000000 
  30.936290   443.000000     0.002257   383.953962     0.000000 
  30.953290   426.000000     0.002347   383.792232     0.000000 
  30.970290   426.000000     0.002347   383.641320     0.000000 
  30.987290   455.000000     0.002198   383.501267     0.000000 
  31.004290   446.000000     0.002242   383.372027     0.000000 
  31.021290   447.000000     0.002237   383.253668     0.000000 
  31.038290   483.000000     0.002070   383.146169     0.000000 
  31.055290   455.000000     0.002198   383.049627     0.000000 
  31.072290   445.000000     0.002247   382.964048     0.000000 
  31.089290   480.000000     0.002083   382.889558     0.000000 
  31.106290   499.000000     0.002004   382.826190     0.000000 
  31.123290   494.000000     0.002024   382.774103     0.000000 
  31.140290   493.000000     0.002028   382.733356     0.000000 
  31.157290   474.000000     0.002110   382.704142     0.000000 
  31.174290   491.000000     0.002037   382.686551     0.000000 
  31.191290   483.000000     0.002070   382.680809     0.000000 
  31.208290   447.000000     0.002237   382.687041     0.000000 
  31.225290   433.000000     0.002309   382.705509     0.000000 
  31.242290   463.000000     0.002160   382.736373     0.000000 
  31.259290   438.000000     0.002283   382.779938     0.000000 
  31.276290   431.000000     0.002320   382.836400     0.000000 
  31.293290   407.000000     0.002457   382.906108     0.000000 
  31.310290   403.000000     0.002481   382.989301     0.000000 
  31.327290   419.000000     0.002387   383.086379     0.000000 
  31.344290   395.000000     0.002532   383.197624     0.000000 
  31.361290   428.000000     0.002336   383.323491     0.000000 
  31.378290   435.000000     0.002299   383.464314     0.000000 
  31.395290   410.000000     0.002439   383.620609     0.000000 
  31.412300   409.000000     0.002445   383.792873     0.000000 
  31.429300   410.000000     0.002439   383.981487     0.000000 
  31.446300   436.000000     0.002294   384.187004     0.000000 
  31.463300   440.000000     0.002273   384.410085     0.000000 
  31.480300   422.000000     0.002370   384.651256     0.000000 
  31.497300   455.000000     0.002198   384.911267     0.000000 
  31.514300   432.000000     0.002315   385.190727     0.000000 
  31.531300   417.000000     0.002398   385.490486     0.000000 
  31.548300   398.000000     0.002513   386.704243     0.000000 
  31.565300   433.000000     0.002309   387.060465     0.000000 
  31.582300   424.000000     0.002358   387.439768     0.000000 
  31.599300   400.000000     0.002500   387.843261     0.000000 
  31.616300   427.000000     0.002342   388.271882     0.000000 
  31.633300   451.000000     0.002217   388.726895     0.000000 
  31.650300   401.000000     0.002494   377.993807     0.000000 
  31.667300   433.000000     0.002309   378.629938     0.000000 
  31.684300   402.000000     0.002488   379.294170     0.000000 
  31.701300   428.000000     0.002336   379.988191     0.000000 
  31.718300   365.000000     0.002740   380.713497     0.000000 
  31.735300   424.000000     0.002358   381.472019     0.000000 
  31.752300   435.000000     0.002299   382.265479     0.000000 
  31.769300   452.000000     0.002212   383.096096     0.000000 
  31.786300   451.000000     0.002217   383.965860     0.000000 
  31.803300   435.000000     0.002299   384.877330     0.000000 
  31.820300   447.000000     0.002237   385.832815     0.000000 
  31.837300   446.000000     0.002242   386.835279     0.000000 
  31.854300   459.000000     0.002179   387.887418     0.000000 
  31.871300   439.000000     0.002278   388.992675     0.000000 
  31.888300   426.000000     0.002347   390.154212     0.000000 
  31.905300   433.000000     0.002309   391.376054     0.000000 
  31.922300   466.000000     0.002146   392.661924     0.000000 
  31.939300   455.000000     0.002198   394.016554     0.000000 
  31.956300   459.000000     0.002179   395.444349     0.000000 
  31.973300   447.000000     0.002237   396.950902     0.000000 
  31.990300   452.000000     0.002212   398.541461     0.000000 
  32.007300   484.000000     0.002066   400.222672     0.000000 
  32.024300   465.000000     0.002151   402.000822     0.000000 
  32.041300   438.000000     0.002283   403.883863     0.000000 
  32.058300   450.000000     0.002222   405.879377     0.000000 
  32.075300   480.000000     0.002083   407.996941     0.000000 
  32.092300   467.000000     0.002141   410.245764     0.000000 
  32.109300   447.000000     0.002237   412.637465     0.000000 
  32.126300   476.000000     0.002101   415.183313     0.000000 
  32.143300   462.000000     0.002165   417.897512     0.000000 
  32.160300   477.000000     0.002096   420.793971     0.000000 
  32.177300   474.000000     0.002110   423.890202     0.000000 
  32.194300   495.000000     0.002020   427.203517     0.000000 
  32.211300   513.000000     0.001949   430.755710     0.000000 
  32.228300   513.000000     0.001949   434.568535     0.000000 
  32.245300   498.000000     0.002008   438.669383     0.000000 
  32.262300   479.000000     0.002088   443.085876     0.000000 
  32.279300   506.000000     0.001976   447.852810     0.000000 
  32.296300   507.000000     0.001972   453.005656     0.000000 
  32.313310   508.000000     0.001969   458.592557     0.000000 
  32.330310   544.000000     0.001838   464.653131     0.000000 
  32.347310   555.000000     0.001802   471.248709     0.000000 
  32.364310   542.000000     0.001845   478.440191     0.000000 
  32.381310   545.000000     0.001835   486.304539     0.000000 
  32.398310   529.000000     0.001890   494.923466     0.000000 
  32.415310   552.000000     0.001812   504.400923     0.000000 
  32.432310   592.000000     0.001689   514.849573     0.000000 
  32.449310   615.000000     0.001626   526.414851     0.000000 
  32.466310   610.000000     0.001639   539.260107     0.000000 
  32.483310   629.000000     0.001590   553.602733     0.000000 
  32.500310   682.000000     0.001466   569.701732     0.000000 
  32.517310   701.000000     0.001427   587.918597     0.000000 
  32.534310   753.000000     0.001328   608.716408     0.000000 
  32.551310   798.000000     0.001253   632.770167     0.000000 
  32.568310   848.000000     0.001179   660.989282     0.000000 
  32.585310   913.000000     0.001095   694.712465     0.000000 
  32.602310   941.000000     0.001063   735.746373     0.000000 
  32.619310  1087.000000     0.000920   786.667815     0.000000 
  32.636310  1161.000000     0.000861   850.799848     0.000000 
  32.653310  1386.000000     0.000722   932.585992     0.000000 
  32.670310  1474.000000     0.000678  1037.300132     0.000000 
  32.687310  1669.000000     0.000599  1171.377256     0.000000 
  32.704310  1972.000000     0.000507  1341.568828     0.000000 
  32.721310  2264.000000     0.000442  1555.107726     0.000000 
  32.738310  2654.000000     0.000377  1818.122308     0.000000 
  32.755310  3068.000000     0.000326  2135.593200     0.000000 
  32.772310  3735.000000     0.000268  2509.023366     0.000000 
  32.789310  4403.000000     0.000227  2935.916126     0.000000 
  32.806310  4946.000000     0.000202  3406.471441     0.000000 
  32.823310  5563.000000     0.000180  3901.680413     0.000000 
  32.840310  6082.000000     0.000164  4390.009279     0.000000 
  32.857310  6496.000000     0.000154  4827.688024     0.000000 
  32.874310  6751.000000     0.000148  5166.673787     0.000000 
  32.891310  6842.000000     0.000146  5368.308146     0.000000 
  32.908310  6780.000000     0.000147  5419.748529     0.000000 
  32.925310  6693.000000     0.000149  5331.554459     0.000000 
  32.942310  6506.000000     0.000154  5127.172989     0.000000 
  32.959310  6153.000000     0.000163  4827.671190     0.000000 
  32.976310  5831.000000     0.000171  4452.630207     0.000000 
  32.993310  5423.000000     0.000184  4024.190807     0.000000 
  33.010310  4952.000000     0.000202  3570.627914     0.000000 
  33.027310  4454.000000     0.000225  3120.873896     0.000000 
  33.044310  3931.000000     0.000254  2698.424267     0.000000 
  33.061310  3507.000000     0.000285  2318.560628     0.000000 
  33.078310  3060.000000     0.000327  1988.218715     0.000000 
  33.095310  2686.000000     0.000372  1708.906317     0.000000 
  33.112310  2361.000000     0.000424  1477.791972     0.000000 
  33.129310  2055.000000     0.000487  1290.305082     0.000000 
  33.146310  1791.000000     0.000558  1140.360159     0.000000 
  33.163310  1528.000000     0.000654  1021.977196     0.000000 
  33.180310  1375.000000     0.000727   929.119507     0.000000 
  33.197320  1229.000000     0.000814   856.578417     0.000000 
  33.214320  1122.000000     0.000891   799.842402     0.000000 
  33.231320  1000.000000     0.001000   755.262012     0.000000 
  33.248320   936.000000     0.001068   719.911636     0.000000 
  33.265320   909.000000     0.001100   691.653909     0.000000 
  33.282320   860.000000     0.001163   668.864203     0.000000 
  33.299320   799.000000     0.001252   650.421295     0.000000 
  33.316320   753.000000     0.001328   635.514110     0.000000 
  33.333320   728.000000     0.001374   623.613195     0.000000 
  33.350320   718.000000     0.001393   614.362648     0.000000 
  33.367320   695.000000     0.001439   607.567386     0.000000 
  33.384320   702.000000     0.001425   603.154292     0.000000 
  33.401320   670.000000     0.001493   601.177847     0.000000 
  33.418320   685.000000     0.001460   601.838637     0.000000 
  33.435320   719.000000     0.001391   605.499223     0.000000 
  33.452320   722.000000     0.001385   612.757041     0.000000 
  33.469320   738.000000     0.001355   624.447232     0.000000 
  33.486320   771.000000     0.001297   641.762752     0.000000 
  33.503320   763.000000     0.001311   666.185887     0.000000 
  33.520320   807.000000     0.001239   699.628938     0.000000 
  33.537320   876.000000     0.001142   744.198159     0.000000 
  33.554320   900.000000     0.001111   802.316572     0.000000 
  33.571320   999.000000     0.001001   876.232713     0.000000 
  33.588320  1101.000000     0.000908   968.106037     0.000000 
  33.605320  1093.000000     0.000915  1079.239902     0.000000 
  33.622320  1277.000000     0.000783  1210.083970     0.000000 
  33.639320  1468.000000     0.000681  1359.161573     0.000000 
  33.656320  1608.000000     0.000622  1522.704652     0.000000 
  33.673320  1786.000000     0.000560  1693.247930     0.000000 
  33.690320  1924.000000     0.000520  1859.002719     0.000000 
  33.707320  2077.000000     0.000481  2004.302216     0.000000 
  33.724320  2216.000000     0.000451  2112.361628     0.000000 
  33.741320  2276.000000     0.000439  2171.552992     0.000000 
  33.758320  2312.000000     0.000433  2179.061724     0.000000 
  33.775320  2303.000000     0.000434  2139.731569     0.000000 
  33.792320  2263.000000     0.000442  2061.897823     0.000000 
  33.809320  2161.000000     0.000463  1952.962490     0.000000 
  33.826320  1990.000000     0.000503  1818.918292     0.000000 
  33.843320  1857.000000     0.000539  1667.337702     0.000000 
  33.860320  1629.000000     0.000614  1507.606186     0.000000 
  33.877320  1433.000000     0.000698  1349.571887     0.000000 
  33.894320  1298.000000     0.000770  1201.244412     0.000000 
  33.911320  1162.000000     0.000861  1067.639111     0.000000 
  33.928320  1014.000000     0.000986   951.240801     0.000000 
  33.945320   907.000000     0.001103   852.322507     0.000000 
  33.962320   794.000000     0.001259   770.084009     0.000000 
  33.979320   730.000000     0.001370   702.772507     0.000000 
  33.996320   658.000000     0.001520   648.468677     0.000000 
  34.013320   623.000000     0.001605   604.996064     0.000000 
  34.030320   597.000000     0.001675   570.405898     0.000000 
  34.047320   537.000000     0.001862   542.835141     0.000000 
  34.064320   531.000000     0.001883   520.772353     0.000000 
  34.081320   532.000000     0.001880   502.912625     0.000000 
  34.098330   499.000000     0.002004   488.264675     0.000000 
  34.115330   479.000000     0.002088   476.055318     0.000000 
  34.132330   472.000000     0.002119   465.712012     0.000000 
  34.149330   445.000000     0.002247   456.801612     0.000000 
  34.166330   460.000000     0.002174   449.025056     0.000000 
  34.183330   457.000000     0.002188   442.153348     0.000000 
  34.200330   453.000000     0.002208   436.028360     0.000000 
  34.217330   449.000000     0.002227   430.524293     0.000000 
  34.234330   441.000000     0.002268   425.551559     0.000000 
  34.251330   430.000000     0.002326   421.034197     0.000000 
  34.268330   394.000000     0.002538   416.915837     0.000000 
  34.285330   395.000000     0.002532   413.145812     0.000000 
  34.302330   428.000000     0.002336   409.685339     0.000000 
  34.319330   405.000000     0.002469   406.498206     0.000000 
  34.336330   395.000000     0.002532   403.556225     0.000000 
  34.353330   398.000000     0.002513   400.832467     0.000000 
  34.370330   393.000000     0.002545   398.305807     0.000000 
  34.387330   437.000000     0.002288   395.955759     0.000000 
  34.404330   429.000000     0.002331   393.766179     0.000000 
  34.421330   436.000000     0.002294   391.721229     0.000000 
  34.438330   428.000000     0.002336   389.808388     0.000000 
  34.455330   409.000000     0.002445   388.015244     0.000000 
  34.472330   397.000000     0.002519   386.331964     0.000000 
  34.489330   396.000000     0.002525   384.748706     0.000000 
  34.506330   397.000000     0.002519   383.257658     0.000000 
  34.523330   362.000000     0.002762   381.850929     0.000000 
  34.540330   390.000000     0.002564   380.522246     0.000000 
  34.557330   362.000000     0.002762   379.265221     0.000000 
  34.574330   386.000000     0.002591   378.074768     0.000000 
  34.591330   416.000000     0.002404   376.945669     0.000000 
  34.608330   369.000000     0.002710   375.873760     0.000000 
  34.625330   369.000000     0.002710   374.854743     0.000000 
  34.642330   380.000000     0.002632   373.885185     0.000000 
  34.659330   377.000000     0.002653   372.961514     0.000000 
  34.676330   375.000000     0.002667   372.080876     0.000000 
  34.693330   406.000000     0.002463   371.240287     0.000000 
  34.710330   388.000000     0.002577   370.437355     0.000000 
  34.727330   386.000000     0.002591   369.669567     0.000000 
  34.744330   364.000000     0.002747   368.934908     0.000000 
  34.761330   361.000000     0.002770   368.231250     0.000000 
  34.778330   405.000000     0.002469   367.556883     0.000000 
  34.795330   372.000000     0.002688   366.909994     0.000000 
  34.812330   379.000000     0.002639   366.289127     0.000000 
  34.829330   370.000000     0.002703   366.056956     0.000000 
  34.846330   387.000000     0.002584   365.489072     0.000000 
  34.863330   402.000000     0.002488   364.943185     0.000000 
  34.880330   386.000000     0.002591   364.418223     0.000000 
  34.897330   392.000000     0.002551   363.913033     0.000000 
  34.914330   369.000000     0.002710   363.426687     0.000000 
  34.931330   353.000000     0.002833   362.958184     0.000000 
  34.948330   388.000000     0.002577   362.506721     0.000000 
  34.965330   396.000000     0.002525   362.071426     0.000000 
  34.982330   399.000000     0.002506   361.651598     0.000000 
  34.999340   382.000000     0.002618   361.246241     0.000000 
  35.016340   367.000000     0.002725   360.855218     0.000000 
  35.033340   370.000000     0.002703   360.477622     0.000000 
  35.050340   374.000000     0.002674   360.112913     0.000000 
  35.067340   371.000000     0.002695   359.760507     0.000000 
  35.084340   366.000000     0.002732   359.419931     0.000000 
  35.101340   369.000000     0.002710   359.090671     0.000000 
  35.118340   350.000000     0.002857   358.772310     0.000000 
  35.135340   350.000000     0.002857   358.464395     0.000000 
  35.152340   373.000000     0.002681   358.166559     0.000000 
  35.169340   359.000000     0.002786   357.878402     0.000000 
  35.186340   322.000000     0.003106   357.599600     0.000000 
  35.203340   321.000000     0.003115   357.329799     0.000000 
  35.220340   383.000000     0.002611   357.068715     0.000000 
  35.237340   359.000000     0.002786   354.381532     0.000000 
  35.254340   360.000000     0.002778   354.173000     0.000000 
  35.271340   373.000000     0.002681   353.971553     0.000000 
  35.288340   364.000000     0.002747   353.776995     0.000000 
  35.305340   385.000000     0.002597   353.589105     0.000000 
  35.322340   370.000000     0.002703   353.407713     0.000000 
  35.339340   361.000000     0.002770   353.232625     0.000000 
  35.356340   316.000000     0.003165   353.063695     0.000000 
  35.373340   347.000000     0.002882   352.900755     0.000000 
  35.390340   349.000000     0.002865   352.743679     0.000000 
  35.407340   344.000000     0.002907   352.592324     0.000000 
  35.424340   350.000000     0.002857   352.446585     0.000000 
  35.441340   384.000000     0.002604   352.306339     0.000000 
  35.458340   377.000000     0.002653   352.171499     0.000000 
  35.475340   353.000000     0.002833   352.041966     0.000000 
  35.492340   399.000000     0.002506   351.917668     0.000000 
  35.509340   361.000000     0.002770   351.798526     0.000000 
  35.526340   292.000000     0.003425   351.684487     0.000000 
  35.543340   358.000000     0.002793   351.575489     0.000000 
  35.560340   354.000000     0.002825   351.471496     0.000000 
  35.577340   391.000000     0.002558   351.372465     0.000000 
  35.594340   392.000000     0.002551   351.278376     0.000000 
  35.611340   356.000000     0.002809   351.189207     0.000000 
  35.628340   415.000000     0.002410   351.104952     0.000000 
  35.645340   352.000000     0.002841   351.025609     0.000000 
  35.662340   375.000000     0.002667   350.951190     0.000000 
  35.679340   431.000000     0.002320   350.881711     0.000000 
  35.696340   417.000000     0.002398   350.817202     0.000000 
  35.713340   455.000000     0.002198   350.757701     0.000000 
  35.730340   444.000000     0.002252   350.703256     0.000000 
  35.747340   457.000000     0.002188   350.653926     0.000000 
  35.764340   430.000000     0.002326   350.609781     0.000000 
  35.781340   410.000000     0.002439   350.570903     0.000000 
  35.798340   422.000000     0.002370   350.537384     0.000000 
  35.815340   384.000000     0.002604   350.509332     0.000000 
  35.832340   364.000000     0.002747   350.486864     0.000000 
  35.849340   449.000000     0.002227   350.470116     0.000000 
  35.866340   360.000000     0.002778   350.459233     0.000000 
  35.883350   430.000000     0.002326   350.454384     0.000000 
  35.900350   433.000000     0.002309   350.455748     0.000000 
  35.917350   409.000000     0.002445   350.463529     0.000000 
  35.934350   382.000000     0.002618   350.477936     0.000000 
  35.951350   436.000000     0.002294   350.499220     0.000000 
  35.968350   355.000000     0.002817   350.527631     0.000000 
  35.985350   368.000000     0.002717   350.563469     0.000000 
  36.002350   362.000000     0.002762   350.607033     0.000000 
  36.019350   381.000000     0.002625   350.658679     0.000000 
  36.036350   404.000000     0.002475   350.718765     0.000000 
  36.053350   391.000000     0.002558   350.787714     0.000000 
  36.070350   398.000000     0.002513   350.865950     0.000000 
  36.087350   387.000000     0.002584   348.508152     0.000000 
  36.104350   374.000000     0.002674   347.752443     0.000000 
  36.121350   368.000000     0.002717   347.899896     0.000000 
  36.138350   343.000000     0.002915   348.058172     0.000000 
  36.155350   346.000000     0.002890   348.228004     0.000000 
  36.172350   339.000000     0.002950   348.410129     0.000000 
  36.189350   357.000000     0.002801   348.605421     0.000000 
  36.206350   359.000000     0.002786   348.814761     0.000000 
  36.223350   351.000000     0.002849   349.039194     0.000000 
  36.240350   341.000000     0.002933   349.279782     0.000000 
  36.257350   363.000000     0.002755   349.537781     0.000000 
  36.274350   338.000000     0.002959   349.814477     0.000000 
  36.291350   349.000000     0.002865   350.111391     0.000000 
  36.308350   320.000000     0.003125   350.430088     0.000000 
  36.325350   357.000000     0.002801   350.772425     0.000000 
  36.342350   333.000000     0.003003   351.140323     0.000000 
  36.359350   344.000000     0.002907   351.536062     0.000000 
  36.376350   324.000000     0.003086   351.962017     0.000000 
  36.393350   361.000000     0.002770   352.421015     0.000000 
  36.410350   326.000000     0.003067   352.916018     0.000000 
  36.427350   354.000000     0.002825   353.450559     0.000000 
  36.444350   308.000000     0.003247   354.028368     0.000000 
  36.461350   313.000000     0.003195   354.653907     0.000000 
  36.478350   346.000000     0.002890   355.331918     0.000000 
  36.495350   344.000000     0.002907   356.068096     0.000000 
  36.512350   288.000000     0.003472   356.868545     0.000000 
  36.529350   344.000000     0.002907   357.740615     0.000000 
  36.546350   336.000000     0.002976   358.692259     0.000000 
  36.563350   355.000000     0.002817   359.733100     0.000000 
  36.580350   338.000000     0.002959   360.873657     0.000000 
  36.597350   318.000000     0.003145   362.126741     0.000000 
  36.614350   341.000000     0.002933   363.506565     0.000000 
  36.631350   378.000000     0.002646   365.030637     0.000000 
  36.648350   349.000000     0.002865   366.718837     0.000000 
  36.665350   347.000000     0.002882   368.596225     0.000000 
  36.682350   333.000000     0.003003   370.692385     0.000000 
  36.699350   336.000000     0.002976   373.046068     0.000000 
  36.716350   359.000000     0.002786   375.705614     0.000000 
  36.733350   355.000000     0.002817   378.737253     0.000000 
  36.750350   377.000000     0.002653   382.227976     0.000000 
  36.767350   345.000000     0.002899   386.300300     0.000000 
  36.784360   349.000000     0.002865   391.121526     0.000000 
  36.801360   349.000000     0.002865   396.915747     0.000000 
  36.818360   379.000000     0.002639   403.986760     0.000000 
  36.835360   401.000000     0.002494   412.738573     0.000000 
  36.852360   372.000000     0.002688   423.671731     0.000000 
  36.869360   359.000000     0.002786   437.412605     0.000000 
  36.886360   373.000000     0.002681   454.672293     0.000000 
  36.903360   429.000000     0.002331   476.259361     0.000000 
  36.920360   450.000000     0.002222   502.980994     0.000000 
  36.937360   447.000000     0.002237   535.629235     0.000000 
  36.954360   458.000000     0.002183   574.813318     0.000000 
  36.971360   469.000000     0.002132   620.028487     0.000000 
  36.988360   492.000000     0.002033   672.913380     0.000000 
  37.005360   514.000000     0.001946   731.785628     0.000000 
  37.022360   530.000000     0.001887   794.751916     0.000000 
  37.039360   567.000000     0.001764   858.483882     0.000000 
  37.056360   601.000000     0.001664   918.025532     0.000000 
  37.073360   603.000000     0.001658   967.312654     0.000000 
  37.090360   614.000000     0.001629  1000.890962     0.000000 
  37.107360   625.000000     0.001600  1015.834717     0.000000 
  37.124360   620.000000     0.001613  1012.858271     0.000000 
  37.141360   622.000000     0.001608   994.926794     0.000000 
  37.158360   586.000000     0.001706   965.298924     0.000000 
  37.175360   590.000000     0.001695   926.117887     0.000000 
  37.192360   590.000000     0.001695   878.913861     0.000000 
  37.209360   570.000000     0.001754   825.594174     0.000000 
  37.226360   546.000000     0.001832   769.036029     0.000000 
  37.243360   528.000000     0.001894   712.531399     0.000000 
  37.260360   502.000000     0.001992   658.945034     0.000000 
  37.277360   483.000000     0.002070   610.224827     0.000000 
  37.294360   508.000000     0.001969   567.330281     0.000000 
  37.311360   473.000000     0.002114   530.519454     0.000000 
  37.328360   458.000000     0.002183   499.534641     0.000000 
  37.345360   432.000000     0.002315   473.878561     0.000000 
  37.362360   410.000000     0.002439   452.885130     0.000000 
  37.379360   412.000000     0.002427   435.873728     0.000000 
  37.396360   441.000000     0.002268   422.155361     0.000000 
  37.413360   394.000000     0.002538   411.116619     0.000000 
  37.430360   415.000000     0.002410   402.203993     0.000000 
  37.447360   439.000000     0.002278   394.963680     0.000000 
  37.464360   378.000000     0.002646   389.017168     0.000000 
  37.481360   382.000000     0.002618   384.073261     0.000000 
  37.498360   417.000000     0.002398   379.902531     0.000000 
  37.515360   397.000000     0.002519   376.336374     0.000000 
  37.532360   403.000000     0.002481   373.246026     0.000000 
  37.549360   414.000000     0.002415   370.538799     0.000000 
  37.566360   361.000000     0.002770   368.143718     0.000000 
  37.583360   358.000000     0.002793   366.009167     0.000000 
  37.600360   373.000000     0.002681   364.094166     0.000000 
  37.617360   400.000000     0.002500   362.367870     0.000000 
  37.634360   369.000000     0.002710   360.804489     0.000000 
  37.651360   374.000000     0.002674   359.383851     0.000000 
  37.668360   382.000000     0.002618   358.088322     0.000000 
  37.685370   387.000000     0.002584   356.903060     0.000000 
  37.702370   378.000000     0.002646   355.816692     0.000000 
  37.719370   376.000000     0.002660   354.818090     0.000000 
  37.736370   333.000000     0.003003   353.897702     0.000000 
  37.753370   352.000000     0.002841   353.047696     0.000000 
  37.770370   365.000000     0.002740   352.260782     0.000000 
  37.787370   367.000000     0.002725   351.530956     0.000000 
  37.804370   376.000000     0.002660   350.852574     0.000000 
  37.821370   390.000000     0.002564   350.220972     0.000000 
  37.838370   390.000000     0.002564   350.525737     0.000000 
  37.855370   376.000000     0.002660   349.984073     0.000000 
  37.872370   365.000000     0.002740   349.477723     0.000000 
  37.889370   366.000000     0.002732   349.003776     0.000000 
  37.906370   349.000000     0.002865   348.559427     0.000000 
  37.923370   346.000000     0.002890   348.142344     0.000000 
  37.940370   357.000000     0.002801   347.750257     0.000000 
  37.957370   383.000000     0.002611   347.381281     0.000000 
  37.974370   383.000000     0.002611   347.033567     0.000000 
  37.991370   377.000000     0.002653   346.705578     0.000000 
  38.008370   391.000000     0.002558   346.395794     0.000000 
  38.025370   384.000000     0.002604   346.102951     0.000000 
  38.042370   364.000000     0.002747   345.825794     0.000000 
  38.059370   350.000000     0.002857   345.563276     0.000000 
  38.076370   375.000000     0.002667   345.314351     0.000000 
  38.093370   361.000000     0.002770   345.078148     0.000000 
  38.110370   361.000000     0.002770   344.853790     0.000000 
  38.127370   380.000000     0.002632   344.640548     0.000000 
  38.144370   388.000000     0.002577   344.437681     0.000000 
  38.161370   382.000000     0.002618   344.244576     0.000000 
  38.178370   387.000000     0.002584   344.060605     0.000000 
  38.195370   395.000000     0.002532   343.885248     0.000000 
  38.212370   385.000000     0.002597   343.717970     0.000000 
  38.229370   372.000000     0.002688   343.558331     0.000000 
  38.246370   381.000000     0.002625   343.405872     0.000000 
  38.263370   367.000000     0.002725   343.260215     0.000000 
  38.280370   394.000000     0.002538   343.120967     0.000000 
  38.297370   380.000000     0.002632   342.987805     0.000000 
  38.314370   393.000000     0.002545   342.860388     0.000000 
  38.331370   363.000000     0.002755   342.738439     0.000000 
  38.348370   378.000000     0.002646   342.621663     0.000000 
  38.365370   387.000000     0.002584   342.509820     0.000000 
  38.382370   367.000000     0.002725   342.402653     0.000000 
  38.399370   390.000000     0.002564   342.299955     0.000000 
  38.416370   408.000000     0.002451   342.201503     0.000000 
  38.433370   395.000000     0.002532   342.107117     0.000000 
  38.450370   389.000000     0.002571   342.016600     0.000000 
  38.467370   384.000000     0.002604   341.929797     0.000000 
  38.484370   405.000000     0.002469   341.846536     0.000000 
  38.501370   404.000000     0.002475   341.766681     0.000000 
  38.518370   392.000000     0.002551   341.690082     0.000000 
  38.535370   395.000000     0.002532   341.616619     0.000000 
  38.552370   395.000000     0.002532   341.546161     0.000000 
  38.569380   423.000000     0.002364   341.478565     0.000000 
  38.586380   444.000000     0.002252   341.413793     0.000000 
  38.603380   357.000000     0.002801   341.351716     0.000000 
  38.620380   397.000000     0.002519   341.292230     0.000000 
  38.637380   367.000000     0.002725   341.235258     0.000000 
  38.654380   386.000000     0.002591   341.180707     0.000000 
  38.671380   379.000000     0.002639   341.128510     0.000000 
  38.688380   381.000000     0.002625   341.078587     0.000000 
  38.705380   377.000000     0.002653   341.030879     0.000000 
  38.722380   388.000000     0.002577   340.985316     0.000000 
  38.739380   368.000000     0.002717   340.941847     0.000000 
  38.756380   339.000000     0.002950   340.900409     0.000000 
  38.773380   346.000000     0.002890   340.860960     0.000000 
  38.790380   340.000000     0.002941   340.823445     0.000000 
  38.807380   349.000000     0.002865   340.787828     0.000000 
  38.824380   349.000000     0.002865   340.754060     0.000000 
  38.841380   361.000000     0.002770   340.722112     0.000000 
  38.858380   379.000000     0.002639   340.691942     0.000000 
  38.875380   378.000000     0.002646   340.663525     0.000000 
  38.892380   373.000000     0.002681   340.636825     0.000000 
  38.909380   378.000000     0.002646   340.611823     0.000000 
  38.926380   368.000000     0.002717   340.588488     0.000000 
  38.943380   366.000000     0.002732   340.990515     0.000000 
  38.960380   381.000000     0.002625   341.445323     0.000000 
  38.977380   372.000000     0.002688   341.439596     0.000000 
  38.994380   373.000000     0.002681   341.435736     0.000000 
  39.011380   386.000000     0.002591   341.433746     0.000000 
  39.028380   369.000000     0.002710   341.433615     0.000000 
  39.045380   349.000000     0.002865   341.435353     0.000000 
  39.062380   354.000000     0.002825   341.438953     0.000000 
  39.079380   344.000000     0.002907   341.444430     0.000000 
  39.096380   356.000000     0.002809   341.451782     0.000000 
  39.113380   368.000000     0.002717   341.461027     0.000000 
  39.130380   359.000000     0.002786   341.472169     0.000000 
  39.147380   316.000000     0.003165   341.485231     0.000000 
  39.164380   330.000000     0.003030   341.500221     0.000000 
  39.181380   352.000000     0.002841   341.517167     0.000000 
  39.198380   380.000000     0.002632   341.536082     0.000000 
  39.215380   339.000000     0.002950   341.556999     0.000000 
  39.232380   315.000000     0.003175   341.579935     0.000000 
  39.249380   312.000000     0.003205   341.604930     0.000000 
  39.266380   314.000000     0.003185   341.632005     0.000000 
  39.283380   314.000000     0.003185   341.661205     0.000000 
  39.300380   338.000000     0.002959   341.692557     0.000000 
  39.317380   310.000000     0.003226   341.726112     0.000000 
  39.334380   338.000000     0.002959   341.761902     0.000000 
  39.351380   340.000000     0.002941   341.799985     0.000000 
  39.368380   379.000000     0.002639   341.840397     0.000000 
  39.385380   355.000000     0.002817   341.883204     0.000000 
  39.402380   328.000000     0.003049   341.928450     0.000000 
  39.419380   310.000000     0.003226   341.976207     0.000000 
  39.436380   323.000000     0.003096   342.026523     0.000000 
  39.453380   331.000000     0.003021   342.079482     0.000000 
  39.470390   320.000000     0.003125   342.135171     0.000000 
  39.487390   347.000000     0.002882   342.193618     0.000000 
  39.504390   323.000000     0.003096   342.254916     0.000000 
  39.521390   346.000000     0.002890   342.319168     0.000000 
  39.538390   335.000000     0.002985   342.386443     0.000000 
  39.555390   335.000000     0.002985   342.096291     0.000000 
  39.572390   327.000000     0.003058   342.175029     0.000000 
  39.589390   308.000000     0.003247   342.257002     0.000000 
  39.606390   281.000000     0.003559   342.342302     0.000000 
  39.623390   311.000000     0.003215   342.431072     0.000000 
  39.640390   330.000000     0.003030   342.523415     0.000000 
  39.657390   313.000000     0.003195   342.619489     0.000000 
  39.674390   330.000000     0.003030   342.719411     0.000000 
  39.691390   343.000000     0.002915   342.823353     0.000000 
  39.708390   322.000000     0.003106   342.931448     0.000000 
  39.725390   323.000000     0.003096   343.043888     0.000000 
  39.742390   325.000000     0.003077   343.160819     0.000000 
  39.759390   322.000000     0.003106   343.282457     0.000000 
  39.776390   340.000000     0.002941   343.408966     0.000000 
  39.793390   349.000000     0.002865   343.540584     0.000000 
  39.810390   306.000000     0.003268   343.677497     0.000000 
  39.827390   304.000000     0.003289   343.819973     0.000000 
  39.844390   324.000000     0.003086   343.968218     0.000000 
  39.861390   338.000000     0.002959   344.122533     0.000000 
  39.878390   355.000000     0.002817   344.283151     0.000000 
  39.895390   345.000000     0.002899   344.450409     0.000000 
  39.912390   353.000000     0.002833   344.624572     0.000000 
  39.929390   334.000000     0.002994   344.806016     0.000000 
  39.946390   358.000000     0.002793   344.995044     0.000000 
  39.963390   357.000000     0.002801   345.192078     0.000000 
  39.980390   335.000000     0.002985   345.397464     0.000000 
  39.997390   338.000000     0.002959   345.611680     0.000000 
  40.014390   350.000000     0.002857   345.835117     0.000000 
  40.031390   360.000000     0.002778   346.068318     0.000000 
  40.048390   334.000000     0.002994   346.311732     0.000000 
  40.065390   300.000000     0.003333   346.565975     0.000000 
  40.082390   349.000000     0.002865   346.831562     0.000000 
  40.099390   347.000000     0.002882   347.109198     0.000000 
  40.116390   330.000000     0.003030   347.399472     0.000000 
  40.133390   313.000000     0.003195   347.703194     0.000000 
  40.150390   325.000000     0.003077   348.021044     0.000000 
  40.167390   333.000000     0.003003   348.353952     0.000000 
  40.184390   361.000000     0.002770   348.702709     0.000000 
  40.201390   365.000000     0.002740   349.068386     0.000000 
  40.218390   353.000000     0.002833   349.451906     0.000000 
  40.235390   348.000000     0.002874   349.854508     0.000000 
  40.252390   362.000000     0.002762   350.277272     0.000000 
  40.269390   335.000000     0.002985   350.721642     0.000000 
  40.286390   344.000000     0.002907   351.188886     0.000000 
  40.303390   321.000000     0.003115   351.680694     0.000000 
  40.320390   375.000000     0.002667   352.198563     0.000000 
  40.337390   329.000000     0.003040   352.744481     0.000000 
  40.354400   357.000000     0.002801   353.320570     0.000000 
  40.371400   376.000000     0.002660   353.928507     0.000000 
  40.388400   348.000000     0.002874   354.570740     0.000000 
  40.405400   328.000000     0.003049   355.250067     0.000000 
  40.422400   355.000000     0.002817   355.969031     0.000000 
  40.439400   370.000000     0.002703   356.369682     0.000000 
  40.456400   354.000000     0.002825   357.181331     0.000000 
  40.473400   360.000000     0.002778   358.043025     0.000000 
  40.490400   347.000000     0.002882   358.958503     0.000000 
  40.507400   392.000000     0.002551   359.932669     0.000000 
  40.524400   386.000000     0.002591   360.970109     0.000000 
  40.541400   346.000000     0.002890   362.076820     0.000000 
  40.558400   377.000000     0.002653   363.258470     0.000000 
  40.575400   346.000000     0.002890   364.522456     0.000000 
  40.592400   357.000000     0.002801   365.875848     0.000000 
  40.609400   400.000000     0.002500   367.327851     0.000000 
  40.626400   366.000000     0.002732   368.887365     0.000000 
  40.643400   408.000000     0.002451   370.565959     0.000000 
  40.660400   398.000000     0.002513   372.374951     0.000000 
  40.677400   397.000000     0.002519   374.329039     0.000000 
  40.694400   367.000000     0.002725   376.442783     0.000000 
  40.711400   371.000000     0.002695   378.735073     0.000000 
  40.728400   365.000000     0.002740   381.224863     0.000000 
  40.745400   390.000000     0.002564   383.936772     0.000000 
  40.762400   392.000000     0.002551   386.895852     0.000000 
  40.779400   429.000000     0.002331   390.134720     0.000000 
  40.796400   405.000000     0.002469   393.687175     0.000000 
  40.813400   411.000000     0.002433   397.597517     0.000000 
  40.830400   409.000000     0.002445   401.912860     0.000000 
  40.847400   420.000000     0.002381   406.695901     0.000000 
  40.864400   468.000000     0.002137   412.016053     0.000000 
  40.881400   475.000000     0.002105   417.968087     0.000000 
  40.898400   475.000000     0.002105   424.662739     0.000000 
  40.915400   494.000000     0.002024   432.255750     0.000000 
  40.932400   506.000000     0.001976   440.938668     0.000000 
  40.949400   530.000000     0.001887   450.985302     0.000000 
  40.966400   565.000000     0.001770   462.740780     0.000000 
  40.983400   640.000000     0.001563   476.693188     0.000000 
  41.000400   650.000000     0.001538   493.449369     0.000000 
  41.017400   647.000000     0.001546   513.835441     0.000000 
  41.034400   688.000000     0.001453   538.829312     0.000000 
  41.051400   815.000000     0.001227   569.685136     0.000000 
  41.068400   898.000000     0.001114   607.773319     0.000000 
  41.085400   961.000000     0.001041   654.718733     0.000000 
  41.102400  1011.000000     0.000989   712.097645     0.000000 
  41.119400  1130.000000     0.000885   781.581212     0.000000 
  41.136400  1241.000000     0.000806   864.454312     0.000000 
  41.153400  1398.000000     0.000715   961.719913     0.000000 
  41.170400  1643.000000     0.000609  1073.366946     0.000000 
  41.187400  1733.000000     0.000577  1198.213617     0.000000 
  41.204400  1998.000000     0.000501  1332.765624     0.000000 
  41.221400  2269.000000     0.000441  1470.574449     0.000000 
  41.238400  2509.000000     0.000399  1601.531263     0.000000 
  41.255410  2819.000000     0.000355  1712.697112     0.000000 
  41.272410  2968.000000     0.000337  1791.659609     0.000000 
  41.289410  3104.000000     0.000322  1830.984474     0.000000 
  41.306410  3174.000000     0.000315  1831.742439     0.000000 
  41.323410  3028.000000     0.000330  1800.901690     0.000000 
  41.340410  2973.000000     0.000336  1747.254399     0.000000 
  41.357410  2824.000000     0.000354  1676.457478     0.000000 
  41.374410  2740.000000     0.000365  1590.844634     0.000000 
  41.391410  2582.000000     0.000387  1491.278720     0.000000 
  41.408410  2262.000000     0.000442  1380.432712     0.000000 
  41.425410  2069.000000     0.000483  1263.438871     0.000000 
  41.442410  2001.000000     0.000500  1146.770315     0.000000 
  41.459410  1693.000000     0.000591  1036.166412     0.000000 
  41.476410  1517.000000     0.000659   935.416176     0.000000 
  41.493410  1371.000000     0.000729   846.479073     0.000000 
  41.510410  1207.000000     0.000829   769.684160     0.000000 
  41.527410  1086.000000     0.000921   704.586039     0.000000 
  41.544410   958.000000     0.001044   650.071807     0.000000 
  41.561410   906.000000     0.001104   604.934892     0.000000 
  41.578410   863.000000     0.001159   567.778556     0.000000 
  41.595410   798.000000     0.001253   537.355117     0.000000 
  41.612410   720.000000     0.001389   512.429935     0.000000 
  41.629410   742.000000     0.001348   491.983682     0.000000 
  41.646410   733.000000     0.001364   475.091591     0.000000 
  41.663410   721.000000     0.001387   461.033851     0.000000 
  41.680410   697.000000     0.001435   449.197060     0.000000 
  41.697410   647.000000     0.001546   439.126303     0.000000 
  41.714410   660.000000     0.001515   430.449259     0.000000 
  41.731410   697.000000     0.001435   422.898758     0.000000 
  41.748410   684.000000     0.001462   416.258664     0.000000 
  41.765410   670.000000     0.001493   410.375557     0.000000 
  41.782410   658.000000     0.001520   405.122673     0.000000 
  41.799410   632.000000     0.001582   400.408924     0.000000 
  41.816410   653.000000     0.001531   396.155567     0.000000 
  41.833410   649.000000     0.001541   392.304594     0.000000 
  41.850410   641.000000     0.001560   388.803318     0.000000 
  41.867410   623.000000     0.001605   385.612022     0.000000 
  41.884410   636.000000     0.001572   382.693218     0.000000 
  41.901410   616.000000     0.001623   380.018245     0.000000 
  41.918410   600.000000     0.001667   377.559338     0.000000 
  41.935410   618.000000     0.001618   375.295129     0.000000 
  41.952410   606.000000     0.001650   373.204541     0.000000 
  41.969410   613.000000     0.001631   371.271315     0.000000 
  41.986410   612.000000     0.001634   369.479180     0.000000 
  42.003410   567.000000     0.001764   367.815583     0.000000 
  42.020410   543.000000     0.001842   366.267796     0.000000 
  42.037410   548.000000     0.001825   364.826001     0.000000 
  42.054410   526.000000     0.001901   363.480129     0.000000 
  42.071410   503.000000     0.001988   362.222421     0.000000 
  42.088410   497.000000     0.002012   361.044826     0.000000 
  42.105410   456.000000     0.002193   359.941150     0.000000 
  42.122410   467.000000     0.002141   358.904895     0.000000 
  42.139410   448.000000     0.002232   357.931070     0.000000 
  42.156420   423.000000     0.002364   357.013863     0.000000 
  42.173420   400.000000     0.002500   356.150289     0.000000 
  42.190420   432.000000     0.002315   355.335456     0.000000 
  42.207420   419.000000     0.002387   354.566038     0.000000 
  42.224420   432.000000     0.002315   353.838447     0.000000 
  42.241420   375.000000     0.002667   353.149940     0.000000 
  42.258420   402.000000     0.002488   352.497527     0.000000 
  42.275420   385.000000     0.002597   351.878931     0.000000 
  42.292420   402.000000     0.002488   351.291645     0.000000 
  42.309420   391.000000     0.002558   350.733765     0.000000 
  42.326420   373.000000     0.002681   350.203178     0.000000 
  42.343420   399.000000     0.002506   349.698283     0.000000 
  42.360420   388.000000     0.002577   349.217286     0.000000 
  42.377420   405.000000     0.002469   348.758834     0.000000 
  42.394420   387.000000     0.002584   348.321398     0.000000 
  42.411420   408.000000     0.002451   347.903827     0.000000 
  42.428420   376.000000     0.002660   347.504810     0.000000 
  42.445420   380.000000     0.002632   347.123366     0.000000 
  42.462420   364.000000     0.002747   346.758365     0.000000 
  42.479420   413.000000     0.002421   346.408966     0.000000 
  42.496420   378.000000     0.002646   346.074190     0.000000 
  42.513420   381.000000     0.002625   345.753312     0.000000 
  42.530420   403.000000     0.002481   345.445484     0.000000 
  42.547420   367.000000     0.002725   345.150079     0.000000 
  42.564420   371.000000     0.002695   344.866354     0.000000 
  42.581420   403.000000     0.002481   344.593767     0.000000 
  42.598420   391.000000     0.002558   344.331668     0.000000 
  42.615420   371.000000     0.002695   344.079583     0.000000 
  42.632420   385.000000     0.002597   343.836942     0.000000 
  42.649420   389.000000     0.002571   343.603329     0.000000 
  42.666420   405.000000     0.002469   343.378244     0.000000 
  42.683420   433.000000     0.002309   343.161320     0.000000 
  42.700420   449.000000     0.002227   342.952115     0.000000 
  42.717420   450.000000     0.002222   342.750307     0.000000 
  42.734420   422.000000     0.002370   342.555503     0.000000 
  42.751420   435.000000     0.002299   342.367419     0.000000 
  42.768420   401.000000     0.002494   342.185704     0.000000 
  42.785420   433.000000     0.002309   342.010109     0.000000 
  42.802420   440.000000     0.002273   341.840320     0.000000 
  42.819420   412.000000     0.002427   341.676115     0.000000 
  42.836420   438.000000     0.002283   341.517215     0.000000 
  42.853420   429.000000     0.002331   341.363420     0.000000 
  42.870420   415.000000     0.002410   341.214480     0.000000 
  42.887420   419.000000     0.002387   341.070219     0.000000 
  42.904420   417.000000     0.002398   340.930410     0.000000 
  42.921420   410.000000     0.002439   340.794897     0.000000 
  42.938420   412.000000     0.002427   340.663475     0.000000 
  42.955420   423.000000     0.002364   340.536002     0.000000 
  42.972420   438.000000     0.002283   340.412296     0.000000 
  42.989420   441.000000     0.002268   340.292230     0.000000 
  43.006420   431.000000     0.002320   340.175636     0.000000 
  43.023420   432.000000     0.002315   340.062400     0.000000 
  43.040430   415.000000     0.002410   339.952309     0.000000 
  43.057430   397.000000     0.002519   339.845387     0.000000 
  43.074430   414.000000     0.002415   339.741432     0.000000 
  43.091430   406.000000     0.002463   339.640352     0.000000 
  43.108430   403.000000     0.002481   339.542021     0.000000 
  43.125430   444.000000     0.002252   339.446355     0.000000 
  43.142430   426.000000     0.002347   339.353239     0.000000 
  43.159430   421.000000     0.002375   339.262598     0.000000 
  43.176430   411.000000     0.002433   339.174328     0.000000 
  43.193430   400.000000     0.002500   339.088359     0.000000 
  43.210430   415.000000     0.002410   339.004595     0.000000 
  43.227430   359.000000     0.002786   338.922973     0.000000 
  43.244430   397.000000     0.002519   338.843407     0.000000 
  43.261430   373.000000     0.002681   338.765838     0.000000 
  43.278430   350.000000     0.002857   338.690187     0.000000 
  43.295430   390.000000     0.002564   338.616400     0.000000 
  43.312430   392.000000     0.002551   338.544403     0.000000 
  43.329430   392.000000     0.002551   338.474150     0.000000 
  43.346430   348.000000     0.002874   338.405571     0.000000 
  43.363430   351.000000     0.002849   338.338623     0.000000 
  43.380430   388.000000     0.002577   338.273244     0.000000 
  43.397430   348.000000     0.002874   338.209392     0.000000 
  43.414430   355.000000     0.002817   338.147009     0.000000 
  43.431430   381.000000     0.002625   338.086060     0.000000 
  43.448430   344.000000     0.002907   338.026490     0.000000 
  43.465430   353.000000     0.002833   337.968265     0.000000 
  43.482430   346.000000     0.002890   337.911336     0.000000 
  43.499430   351.000000     0.002849   337.855670     0.000000 
  43.516430   363.000000     0.002755   337.801224     0.000000 
  43.533430   357.000000     0.002801   337.747966     0.000000 
  43.550430   383.000000     0.002611   337.695856     0.000000 
  43.567430   330.000000     0.003030   337.644865     0.000000 
  43.584430   353.000000     0.002833   337.594955     0.000000 
  43.601430   339.000000     0.002950   337.546100     0.000000 
  43.618430   326.000000     0.003067   337.498265     0.000000 
  43.635430   334.000000     0.002994   337.451425     0.000000 
  43.652430   340.000000     0.002941   339.975779     0.000000 
  43.669430   345.000000     0.002899   339.955681     0.000000 
  43.686430   322.000000     0.003106   339.936852     0.000000 
  43.703430   326.000000     0.003067   339.919282     0.000000 
  43.720430   331.000000     0.003021   339.902946     0.000000 
  43.737430   339.000000     0.002950   339.887836     0.000000 
  43.754430   344.000000     0.002907   339.873928     0.000000 
  43.771430   356.000000     0.002809   339.861216     0.000000 
  43.788430   337.000000     0.002967   339.849680     0.000000 
  43.805430   338.000000     0.002959   339.839314     0.000000 
  43.822430   342.000000     0.002924   339.805608     0.000000 
  43.839430   358.000000     0.002793   338.946703     0.000000 
  43.856430   379.000000     0.002639   338.951739     0.000000 
  43.873430   364.000000     0.002747   338.957661     0.000000 
  43.890430   343.000000     0.002915   338.964460     0.000000 
  43.907430   340.000000     0.002941   338.972143     0.000000 
  43.924430   346.000000     0.002890   338.980703     0.000000 
  43.941440   331.000000     0.003021   338.990152     0.000000 
  43.958440   341.000000     0.002933   339.000474     0.000000 
  43.975440   354.000000     0.002825   339.011680     0.000000 
  43.992440   341.000000     0.002933   339.023769     0.000000 
  44.009440   338.000000     0.002959   339.036747     0.000000 
  44.026440   323.000000     0.003096   339.050612     0.000000 
  44.043440   337.000000     0.002967   339.065373     0.000000 
  44.060440   335.000000     0.002985   339.081030     0.000000 
  44.077440   310.000000     0.003226   339.097591     0.000000 
  44.094440   311.000000     0.003215   339.115057     0.000000 
  44.111440   343.000000     0.002915   339.133440     0.000000 
  44.128440   339.000000     0.002950   339.152740     0.000000 
  44.145440   313.000000     0.003195   339.172970     0.000000 
  44.162440   315.000000     0.003175   339.194131     0.000000 
  44.179440   327.000000     0.003058   339.216239     0.000000 
  44.196440   325.000000     0.003077   339.239295     0.000000 
  44.213440   327.000000     0.003058   339.263314     0.000000 
  44.230440   316.000000     0.003165   339.288302     0.000000 
  44.247440   310.000000     0.003226   339.314275     0.000000 
  44.264440   318.000000     0.003145   339.341237     0.000000 
  44.281440   317.000000     0.003155   343.588737     0.000000 
  44.298440   283.000000     0.003534   343.658478     0.000000 
  44.315440   328.000000     0.003049   343.729845     0.000000 
  44.332440   323.000000     0.003096   343.802859     0.000000 
  44.349440   350.000000     0.002857   343.877551     0.000000 
  44.366440   307.000000     0.003257   343.953943     0.000000 
  44.383440   330.000000     0.003030   344.032070     0.000000 
  44.400440   342.000000     0.002924   344.111955     0.000000 
  44.417440   313.000000     0.003195   344.193634     0.000000 
  44.434440   319.000000     0.003135   344.277134     0.000000 
  44.451440   300.000000     0.003333   344.362492     0.000000 
  44.468440   329.000000     0.003040   344.449739     0.000000 
  44.485440   317.000000     0.003155   344.538913     0.000000 
  44.502440   342.000000     0.002924   344.630048     0.000000 
  44.519440   323.000000     0.003096   344.723184     0.000000 
  44.536440   295.000000     0.003390   344.818358     0.000000 
  44.553440   299.000000     0.003344   344.915613     0.000000 
  44.570440   334.000000     0.002994   345.014987     0.000000 
  44.587440   330.000000     0.003030   345.116529     0.000000 
  44.604440   330.000000     0.003030   345.220278     0.000000 
  44.621440   309.000000     0.003236   345.326286     0.000000 
  44.638440   307.000000     0.003257   345.434595     0.000000 
  44.655440   323.000000     0.003096   345.545262     0.000000 
  44.672440   328.000000     0.003049   345.658331     0.000000 
  44.689440   344.000000     0.002907   345.773861     0.000000 
  44.706440   343.000000     0.002915   345.891903     0.000000 
  44.723440   339.000000     0.002950   346.012518     0.000000 
  44.740440   332.000000     0.003012   345.255105     0.000000 
  44.757440   326.000000     0.003067   345.389613     0.000000 
  44.774440   342.000000     0.002924   345.526747     0.000000 
  44.791440   328.000000     0.003049   345.666581     0.000000 
  44.808440   315.000000     0.003175   345.809180     0.000000 
  44.825440   313.000000     0.003195   348.545874     0.000000 
  44.842450   328.000000     0.003049   348.729983     0.000000 
  44.859450   335.000000     0.002985   348.917723     0.000000 
  44.876450   339.000000     0.002950   349.109290     0.000000 
  44.893450   361.000000     0.002770   349.304800     0.000000 
  44.910450   346.000000     0.002890   349.504349     0.000000 
  44.927450   340.000000     0.002941   349.708060     0.000000 
  44.944450   327.000000     0.003058   349.916036     0.000000 
  44.961450   319.000000     0.003135   350.128411     0.000000 
  44.978450   334.000000     0.002994   350.345293     0.000000 
  44.995450   329.000000     0.003040   350.566825     0.000000 
  45.012450   293.000000     0.003413   350.793127     0.000000 
  45.029450   286.000000     0.003497   351.024349     0.000000 
  45.046450   304.000000     0.003289   351.260620     0.000000 
  45.063450   306.000000     0.003268   351.502104     0.000000 
  45.080450   324.000000     0.003086   351.748939     0.000000 
  45.097450   334.000000     0.002994   352.001299     0.000000 
  45.114450   327.000000     0.003058   352.259335     0.000000 
  45.131450   283.000000     0.003534   352.523234     0.000000 
  45.148450   302.000000     0.003311   352.793159     0.000000 
  45.165450   307.000000     0.003257   353.069312     0.000000 
  45.182450   311.000000     0.003215   353.351868     0.000000 
  45.199450   331.000000     0.003021   353.641047     0.000000 
  45.216450   321.000000     0.003115   353.937036     0.000000 
  45.233450   303.000000     0.003300   354.240074     0.000000 
  45.250450   309.000000     0.003236   354.550364     0.000000 
  45.267450   314.000000     0.003185   354.868165     0.000000 
  45.284450   326.000000     0.003067   355.193697     0.000000 
  45.301450   333.000000     0.003003   355.527240     0.000000 
  45.318450   333.000000     0.003003   355.869033     0.000000 
  45.335450   319.000000     0.003135   356.219380     0.000000 
  45.352450   318.000000     0.003145   356.578543     0.000000 
  45.369450   290.000000     0.003448   356.946850     0.000000 
  45.386450   312.000000     0.003205   357.324587     0.000000 
  45.403450   290.000000     0.003448   357.712113     0.000000 
  45.420450   327.000000     0.003058   358.109739     0.000000 
  45.437450   327.000000     0.003058   358.517856     0.000000 
  45.454450   331.000000     0.003021   363.182624     0.000000 
  45.471450   327.000000     0.003058   363.671152     0.000000 
  45.488450   374.000000     0.002674   364.172521     0.000000 
  45.505450   341.000000     0.002933   364.687230     0.000000 
  45.522450   317.000000     0.003155   365.215725     0.000000 
  45.539450   334.000000     0.002994   365.758552     0.000000 
  45.556450   335.000000     0.002985   366.316201     0.000000 
  45.573450   330.000000     0.003030   366.889269     0.000000 
  45.590450   362.000000     0.002762   367.478296     0.000000 
  45.607450   347.000000     0.002882   368.083937     0.000000 
  45.624450   332.000000     0.003012   368.706786     0.000000 
  45.641450   341.000000     0.002933   369.347566     0.000000 
  45.658450   355.000000     0.002817   370.006931     0.000000 
  45.675450   353.000000     0.002833   370.685680     0.000000 
  45.692450   346.000000     0.002890   371.384535     0.000000 
  45.709450   331.000000     0.003021   372.104378     0.000000 
  45.726460   335.000000     0.002985   372.846454     0.000000 
  45.743460   350.000000     0.002857   373.610868     0.000000 
  45.760460   354.000000     0.002825   374.398941     0.000000 
  45.777460   356.000000     0.002809   375.211757     0.000000 
  45.794460   325.000000     0.003077   376.050310     0.000000 
  45.811460   355.000000     0.002817   376.915807     0.000000 
  45.828460   360.000000     0.002778   377.809356     0.000000 
  45.845460   347.000000     0.002882   378.732304     0.000000 
  45.862460   346.000000     0.002890   379.685895     0.000000 
  45.879460   344.000000     0.002907   380.671635     0.000000 
  45.896460   357.000000     0.002801   381.690920     0.000000 
  45.913460   338.000000     0.002959   382.745442     0.000000 
  45.930460   318.000000     0.003145   383.836770     0.000000 
  45.947460   345.000000     0.002899   384.966813     0.000000 
  45.964460   348.000000     0.002874   386.137344     0.000000 
  45.981460   340.000000     0.002941   387.350516     0.000000 
  45.998460   333.000000     0.003003   388.608340     0.000000 
  46.015460   326.000000     0.003067   389.913257     0.000000 
  46.032460   336.000000     0.002976   391.267555     0.000000 
  46.049460   358.000000     0.002793   392.674010     0.000000 
  46.066460   361.000000     0.002770   394.135234     0.000000 
  46.083460   404.000000     0.002475   395.654398     0.000000 
  46.100460   369.000000     0.002710   397.234494     0.000000 
  46.117460   323.000000     0.003096   398.879160     0.000000 
  46.134460   351.000000     0.002849   400.591839     0.000000 
  46.151460   375.000000     0.002667   402.376719     0.000000 
  46.168460   386.000000     0.002591   404.237781     0.000000 
  46.185460   369.000000     0.002710   406.179869     0.000000 
  46.202460   386.000000     0.002591   408.207609     0.000000 
  46.219460   405.000000     0.002469   410.326630     0.000000 
  46.236460   373.000000     0.002681   412.542331     0.000000 
  46.253460   374.000000     0.002674   414.861290     0.000000 
  46.270460   400.000000     0.002500   417.289844     0.000000 
  46.287460   429.000000     0.002331   419.835720     0.000000 
  46.304460   373.000000     0.002681   422.506400     0.000000 
  46.321460   359.000000     0.002786   425.311012     0.000000 
  46.338460   369.000000     0.002710   428.258446     0.000000 
  46.355460   387.000000     0.002584   431.359555     0.000000 
  46.372460   402.000000     0.002488   434.624969     0.000000 
  46.389460   374.000000     0.002674   438.067681     0.000000 
  46.406460   380.000000     0.002632   441.700493     0.000000 
  46.423460   387.000000     0.002584   445.539073     0.000000 
  46.440460   399.000000     0.002506   449.598957     0.000000 
  46.457460   390.000000     0.002564   453.899187     0.000000 
  46.474460   418.000000     0.002392   458.458776     0.000000 
  46.491460   406.000000     0.002463   463.301062     0.000000 
  46.508460   401.000000     0.002494   468.449520     0.000000 
  46.525460   422.000000     0.002370   473.933021     0.000000 
  46.542460   424.000000     0.002358   479.780832     0.000000 
  46.559460   425.000000     0.002353   486.029022     0.000000 
  46.576460   440.000000     0.002273   492.714465     0.000000 
  46.593460   446.000000     0.002242   499.882722     0.000000 
  46.610460   418.000000     0.002392   507.580783     0.000000 
  46.627470   404.000000     0.002475   515.871934     0.000000 
  46.644470   432.000000     0.002315   524.807144     0.000000 
  46.661470   437.000000     0.002288   534.466474     0.000000 
  46.678470   454.000000     0.002203   544.929468     0.000000 
  46.695470   484.000000     0.002066   556.295304     0.000000 
  46.712470   491.000000     0.002037   568.670094     0.000000 
  46.729470   480.000000     0.002083   582.187187     0.000000 
  46.746470   502.000000     0.001992   596.991903     0.000000 
  46.763470   499.000000     0.002004   613.269300     0.000000 
  46.780470   509.000000     0.001965   631.226596     0.000000 
  46.797470   534.000000     0.001873   651.133145     0.000000 
  46.814470   550.000000     0.001818   673.301717     0.000000 
  46.831470   563.000000     0.001776   698.149069     0.000000 
  46.848470   601.000000     0.001664   726.297115     0.000000 
  46.865470   647.000000     0.001546   758.189029     0.000000 
  46.882470   675.000000     0.001481   794.782614     0.000000 
  46.899470   713.000000     0.001403   837.214503     0.000000 
  46.916470   755.000000     0.001325   886.877311     0.000000 
  46.933470   818.000000     0.001222   945.610122     0.000000 
  46.950470   906.000000     0.001104  1015.590201     0.000000 
  46.967470   954.000000     0.001048  1099.565558     0.000000 
  46.984470  1045.000000     0.000957  1200.602183     0.000000 
  47.001470  1142.000000     0.000876  1322.339089     0.000000 
  47.018470  1285.000000     0.000778  1468.499080     0.000000 
  47.035470  1448.000000     0.000691  1643.128802     0.000000 
  47.052470  1628.000000     0.000614  1849.744637     0.000000 
  47.069470  1903.000000     0.000525  2091.366157     0.000000 
  47.086470  2106.000000     0.000475  2368.926337     0.000000 
  47.103470  2366.000000     0.000423  2680.385681     0.000000 
  47.120470  2738.000000     0.000365  3017.722901     0.000000 
  47.137470  2957.000000     0.000338  3364.618809     0.000000 
  47.154470  3347.000000     0.000299  3694.409799     0.000000 
  47.171470  3623.000000     0.000276  3972.380221     0.000000 
  47.188470  3684.000000     0.000271  4165.864683     0.000000 
  47.205470  3851.000000     0.000260  4256.693979     0.000000 
  47.222470  3901.000000     0.000256  4251.418990     0.000000 
  47.239470  3814.000000     0.000262  4174.721692     0.000000 
  47.256470  3818.000000     0.000262  4056.383898     0.000000 
  47.273470  3637.000000     0.000275  3916.466516     0.000000 
  47.290470  3509.000000     0.000285  3760.805953     0.000000 
  47.307470  3260.000000     0.000307  3584.302521     0.000000 
  47.324470  3183.000000     0.000314  3380.662861     0.000000 
  47.341470  2975.000000     0.000336  3150.572414     0.000000 
  47.358470  2744.000000     0.000364  2904.535578     0.000000 
  47.375470  2521.000000     0.000397  2658.095060     0.000000 
  47.392470  2265.000000     0.000442  2425.874002     0.000000 
  47.409470  2106.000000     0.000475  2218.033132     0.000000 
  47.426470  1978.000000     0.000506  2039.615186     0.000000 
  47.443470  1838.000000     0.000544  1892.220305     0.000000 
  47.460470  1692.000000     0.000591  1775.052531     0.000000 
  47.477470  1532.000000     0.000653  1686.561546     0.000000 
  47.494470  1491.000000     0.000671  1624.767488     0.000000 
  47.511470  1413.000000     0.000708  1588.103290     0.000000 
  47.528480  1433.000000     0.000698  1575.405646     0.000000 
  47.545480  1411.000000     0.000709  1586.366906     0.000000 
  47.562480  1371.000000     0.000729  1621.484151     0.000000 
  47.579480  1440.000000     0.000694  1682.286154     0.000000 
  47.596480  1511.000000     0.000662  1771.362186     0.000000 
  47.613480  1646.000000     0.000608  1892.278092     0.000000 
  47.630480  1777.000000     0.000563  2049.626567     0.000000 
  47.647480  1937.000000     0.000516  2248.602575     0.000000 
  47.664480  2150.000000     0.000465  2494.981402     0.000000 
  47.681480  2436.000000     0.000411  2794.196773     0.000000 
  47.698480  2741.000000     0.000365  3150.938277     0.000000 
  47.715480  3085.000000     0.000324  3567.144106     0.000000 
  47.732480  3476.000000     0.000288  4040.114353     0.000000 
  47.749480  3943.000000     0.000254  4558.156924     0.000000 
  47.766480  4426.000000     0.000226  5096.329069     0.000000 
  47.783480  4750.000000     0.000211  5612.748193     0.000000 
  47.800480  5071.000000     0.000197  6051.421979     0.000000 
  47.817480  5297.000000     0.000189  6357.041861     0.000000 
  47.834480  5460.000000     0.000183  6496.449184     0.000000 
  47.851480  5539.000000     0.000181  6476.123949     0.000000 
  47.868480  5469.000000     0.000183  6335.174985     0.000000 
  47.885480  5324.000000     0.000188  6123.612240     0.000000 
  47.902480  5150.000000     0.000194  5877.588801     0.000000 
  47.919480  4913.000000     0.000204  5609.329798     0.000000 
  47.936480  4675.000000     0.000214  5310.922499     0.000000 
  47.953480  4343.000000     0.000230  4969.103769     0.000000 
  47.970480  3950.000000     0.000253  4580.337284     0.000000 
  47.987480  3540.000000     0.000282  4157.725194     0.000000 
  48.004480  3289.000000     0.000304  3725.147386     0.000000 
  48.021480  2935.000000     0.000341  3307.148526     0.000000 
  48.038480  2556.000000     0.000391  2921.349247     0.000000 
  48.055480  2272.000000     0.000440  2577.340274     0.000000 
  48.072480  2068.000000     0.000484  2277.337131     0.000000 
  48.089480  1839.000000     0.000544  2019.982499     0.000000 
  48.106480  1566.000000     0.000639  1801.675778     0.000000 
  48.123480  1414.000000     0.000707  1617.702339     0.000000 
  48.140480  1264.000000     0.000791  1463.369348     0.000000 
  48.157480  1130.000000     0.000885  1334.032942     0.000000 
  48.174480  1002.000000     0.000998  1225.599353     0.000000 
  48.191480   925.000000     0.001081  1134.354682     0.000000 
  48.208480   857.000000     0.001167  1057.207403     0.000000 
  48.225480   824.000000     0.001214   991.498668     0.000000 
  48.242480   740.000000     0.001351   935.107945     0.000000 
  48.259480   680.000000     0.001471   886.280094     0.000000 
  48.276480   640.000000     0.001563   843.657514     0.000000 
  48.293480   594.000000     0.001684   806.138840     0.000000 
  48.310480   649.000000     0.001541   772.883191     0.000000 
  48.327480   568.000000     0.001761   743.206724     0.000000 
  48.344480   554.000000     0.001805   716.583878     0.000000 
  48.361480   526.000000     0.001901   692.577735     0.000000 
  48.378480   542.000000     0.001845   670.845670     0.000000 
  48.395480   526.000000     0.001901   651.094043     0.000000 
  48.412490   545.000000     0.001835   633.077151     0.000000 
  48.429490   500.000000     0.002000   616.608654     0.000000 
  48.446490   457.000000     0.002188   601.507895     0.000000 
  48.463490   469.000000     0.002132   587.622744     0.000000 
  48.480490   443.000000     0.002257   574.827234     0.000000 
  48.497490   455.000000     0.002198   563.006813     0.000000 
  48.514490   460.000000     0.002174   552.065889     0.000000 
  48.531490   461.000000     0.002169   541.916616     0.000000 
  48.548490   457.000000     0.002188   532.485284     0.000000 
  48.565490   445.000000     0.002247   523.703557     0.000000 
  48.582490   434.000000     0.002304   515.513849     0.000000 
  48.599490   439.000000     0.002278   507.862342     0.000000 
  48.616490   434.000000     0.002304   500.703514     0.000000 
  48.633490   414.000000     0.002415   493.994520     0.000000 
  48.650490   397.000000     0.002519   487.698991     0.000000 
  48.667490   421.000000     0.002375   481.782470     0.000000 
  48.684490   431.000000     0.002320   476.215623     0.000000 
  48.701490   428.000000     0.002336   470.970480     0.000000 
  48.718490   413.000000     0.002421   466.023167     0.000000 
  48.735490   388.000000     0.002577   461.350788     0.000000 
  48.752490   390.000000     0.002564   456.933755     0.000000 
  48.769490   407.000000     0.002457   452.753176     0.000000 
  48.786490   400.000000     0.002500   448.792857     0.000000 
  48.803490   395.000000     0.002532   445.037096     0.000000 
  48.820490   397.000000     0.002519   441.472411     0.000000 
  48.837490   396.000000     0.002525   438.085666     0.000000 
  48.854490   384.000000     0.002604   434.865563     0.000000 
  48.871490   372.000000     0.002688   431.801042     0.000000 
  48.888490   373.000000     0.002681   428.882579     0.000000 
  48.905490   376.000000     0.002660   426.100811     0.000000 
  48.922490   366.000000     0.002732   423.447663     0.000000 
  48.939490   366.000000     0.002732   420.915165     0.000000 
  48.956490   391.000000     0.002558   418.496439     0.000000 
  48.973490   377.000000     0.002653   416.184666     0.000000 
  48.990490   386.000000     0.002591   413.973958     0.000000 
  49.007490   398.000000     0.002513   411.858456     0.000000 
  49.024490   375.000000     0.002667   409.833099     0.000000 
  49.041490   376.000000     0.002660   407.892833     0.000000 
  49.058490   414.000000     0.002415   406.033288     0.000000 
  49.075490   413.000000     0.002421   404.250089     0.000000 
  49.092490   386.000000     0.002591   402.539452     0.000000 
  49.109490   346.000000     0.002890   400.897575     0.000000 
  49.126490   366.000000     0.002732   399.321174     0.000000 
  49.143490   391.000000     0.002558   397.806936     0.000000 
  49.160490   334.000000     0.002994   396.352000     0.000000 
  49.177490   369.000000     0.002710   394.953475     0.000000 
  49.194490   380.000000     0.002632   393.608866     0.000000 
  49.211490   379.000000     0.002639   392.315645     0.000000 
  49.228490   365.000000     0.002740   391.276878     0.000000 
  49.245490   356.000000     0.002809   390.172438     0.000000 
  49.262490   415.000000     0.002410   389.024621     0.000000 
  49.279490   396.000000     0.002525   387.920047     0.000000 
  49.296490   356.000000     0.002809   386.857060     0.000000 
  49.313500   356.000000     0.002809   385.833379     0.000000 
  49.330500   404.000000     0.002475   384.848767     0.000000 
  49.347500   383.000000     0.002611   383.901139     0.000000 
  49.364500   392.000000     0.002551   382.989249     0.000000 
  49.381500   398.000000     0.002513   382.111824     0.000000 
  49.398500   405.000000     0.002469   381.267793     0.000000 
  49.415500   372.000000     0.002688   380.456064     0.000000 
  49.432500   385.000000     0.002597   379.675733     0.000000 
  49.449500   371.000000     0.002695   378.925875     0.000000 
  49.466500   368.000000     0.002717   378.205743     0.000000 
  49.483500   400.000000     0.002500   377.514571     0.000000 
  49.500500   372.000000     0.002688   376.851765     0.000000 
  49.517500   356.000000     0.002809   376.216716     0.000000 
  49.534500   375.000000     0.002667   375.608980     0.000000 
  49.551500   363.000000     0.002755   375.028108     0.000000 
  49.568500   344.000000     0.002907   374.473811     0.000000 
  49.585500   362.000000     0.002762   373.945803     0.000000 
  49.602500   352.000000     0.002841   373.443964     0.000000 
  49.619500   351.000000     0.002849   372.968182     0.000000 
  49.636500   359.000000     0.002786   372.518521     0.000000 
  49.653500   355.000000     0.002817   372.095065     0.000000 
  49.670500   358.000000     0.002793   371.698087     0.000000 
  49.687500   360.000000     0.002778   371.327899     0.000000 
  49.704500   383.000000     0.002611   370.985020     0.000000 
  49.721500   378.000000     0.002646   370.670030     0.000000 
  49.738500   376.000000     0.002660   370.383751     0.000000 
  49.755500   400.000000     0.002500   370.127092     0.000000 
  49.772500   407.000000     0.002457   369.901250     0.000000 
  49.789500   379.000000     0.002639   369.707551     0.000000 
  49.806500   376.000000     0.002660   369.547675     0.000000 
  49.823500   407.000000     0.002457   367.893946     0.000000 
  49.840500   436.000000     0.002294   366.811104     0.000000 
  49.857500   423.000000     0.002364   366.799123     0.000000 
  49.874500   413.000000     0.002421   366.830218     0.000000 
  49.891500   422.000000     0.002370   366.907961     0.000000 
  49.908500   443.000000     0.002257   367.036696     0.000000 
  49.925500   449.000000     0.002227   367.221355     0.000000 
  49.942500   428.000000     0.002336   367.467939     0.000000 
  49.959500   489.000000     0.002045   367.783351     0.000000 
  49.976500   477.000000     0.002096   368.176053     0.000000 
  49.993500   469.000000     0.002132   368.655957     0.000000 
  50.010500   476.000000     0.002101   369.235396     0.000000 
  50.027500   469.000000     0.002132   369.929166     0.000000 
  50.044500   495.000000     0.002020   370.756038     0.000000 
  50.061500   501.000000     0.001996   371.739107     0.000000 
  50.078500   481.000000     0.002079   372.908145     0.000000 
  50.095500   495.000000     0.002020   374.300349     0.000000 
  50.112500   490.000000     0.002041   375.963781     0.000000 
  50.129500   534.000000     0.001873   377.958264     0.000000 
  50.146500   511.000000     0.001957   380.359783     0.000000 
  50.163500   480.000000     0.002083   383.260563     0.000000 
  50.180500   504.000000     0.001984   386.773685     0.000000 
  50.197510   545.000000     0.001835   391.033236     0.000000 
  50.214510   502.000000     0.001992   396.187341     0.000000 
  50.231510   532.000000     0.001880   402.404462     0.000000 
  50.248510   554.000000     0.001805   409.862654     0.000000 
  50.265510   565.000000     0.001770   418.728879     0.000000 
  50.282510   621.000000     0.001610   429.137628     0.000000 
  50.299510   622.000000     0.001608   441.126386     0.000000 
  50.316510   677.000000     0.001477   454.551527     0.000000 
  50.333510   693.000000     0.001443   468.943680     0.000000 
  50.350510   717.000000     0.001395   483.371408     0.000000 
  50.367510   744.000000     0.001344   496.405636     0.000000 
  50.384510   795.000000     0.001258   506.364966     0.000000 
  50.401510   809.000000     0.001236   511.931272     0.000000 
  50.418510   847.000000     0.001181   512.778891     0.000000 
  50.435510   828.000000     0.001208   509.768742     0.000000 
  50.452510   837.000000     0.001195   504.420385     0.000000 
  50.469510   790.000000     0.001266   493.991823     0.000000 
  50.486510   771.000000     0.001297   487.640608     0.000000 
  50.503510   765.000000     0.001307   481.159486     0.000000 
  50.520510   725.000000     0.001379   474.043095     0.000000 
  50.537510   729.000000     0.001372   465.736591     0.000000 
  50.554510   719.000000     0.001391   456.071724     0.000000 
  50.571510   668.000000     0.001497   445.415384     0.000000 
  50.588510   638.000000     0.001567   434.455315     0.000000 
  50.605510   595.000000     0.001681   423.877801     0.000000 
  50.622510   547.000000     0.001828   414.163882     0.000000 
  50.639510   542.000000     0.001845   405.550646     0.000000 
  50.656510   505.000000     0.001980   398.094710     0.000000 
  50.673510   484.000000     0.002066   391.739822     0.000000 
  50.690510   459.000000     0.002179   386.380313     0.000000 
  50.707510   416.000000     0.002404   381.889507     0.000000 
  50.724510   419.000000     0.002387   378.143827     0.000000 
  50.741510   416.000000     0.002404   372.470007     0.000000 
  50.758510   394.000000     0.002538   369.904557     0.000000 
  50.775510   365.000000     0.002740   367.777238     0.000000 
  50.792510   362.000000     0.002762   366.014580     0.000000 
  50.809510   379.000000     0.002639   364.555011     0.000000 
  50.826510   367.000000     0.002725   363.349461     0.000000 
  50.843510   356.000000     0.002809   362.358103     0.000000 
  50.860510   346.000000     0.002890   361.550143     0.000000 
  50.877510   335.000000     0.002985   360.901123     0.000000 
  50.894510   350.000000     0.002857   360.392596     0.000000 
  50.911510   382.000000     0.002618   360.010134     0.000000 
  50.928510   389.000000     0.002571   359.743207     0.000000 
  50.945510   350.000000     0.002857   359.583805     0.000000 
  50.962510   373.000000     0.002681   359.526565     0.000000 
  50.979510   367.000000     0.002725   359.567826     0.000000 
  50.996510   376.000000     0.002660   359.705940     0.000000 
  51.013510   377.000000     0.002653   359.940592     0.000000 
  51.030510   360.000000     0.002778   360.273236     0.000000 
  51.047510   349.000000     0.002865   360.706569     0.000000 
  51.064510   332.000000     0.003012   361.245087     0.000000 
  51.081510   361.000000     0.002770   361.894643     0.000000 
  51.098520   382.000000     0.002618   362.663629     0.000000 
  51.115520   379.000000     0.002639   363.560740     0.000000 
  51.132520   350.000000     0.002857   364.598549     0.000000 
  51.149520   354.000000     0.002825   365.791524     0.000000 
  51.166520   367.000000     0.002725   367.157614     0.000000 
  51.183520   389.000000     0.002571   368.718169     0.000000 
  51.200520   378.000000     0.002646   370.499641     0.000000 
  51.217520   354.000000     0.002825   372.533855     0.000000 
  51.234520   420.000000     0.002381   374.860632     0.000000 
  51.251520   476.000000     0.002101   377.528731     0.000000 
  51.268520   426.000000     0.002347   380.599988     0.000000 
  51.285520   406.000000     0.002463   384.151275     0.000000 
  51.302520   427.000000     0.002342   388.280774     0.000000 
  51.319520   444.000000     0.002252   393.110921     0.000000 
  51.336520   421.000000     0.002375   398.796952     0.000000 
  51.353520   441.000000     0.002268   405.529722     0.000000 
  51.370520   468.000000     0.002137   413.545567     0.000000 
  51.387520   486.000000     0.002058   418.959902     0.000000 
  51.404520   481.000000     0.002079   430.480210     0.000000 
  51.421520   511.000000     0.001957   444.280836     0.000000 
  51.438520   538.000000     0.001859   460.787008     0.000000 
  51.455520   569.000000     0.001757   480.434358     0.000000 
  51.472520   580.000000     0.001724   503.629197     0.000000 
  51.489520   615.000000     0.001626   530.630600     0.000000 
  51.506520   664.000000     0.001506   561.375720     0.000000 
  51.523520   707.000000     0.001414   595.159798     0.000000 
  51.540520   781.000000     0.001280   630.262943     0.000000 
  51.557520   826.000000     0.001211   663.666703     0.000000 
  51.574520   829.000000     0.001206   691.309569     0.000000 
  51.591520   832.000000     0.001202   709.275259     0.000000 
  51.608520   896.000000     0.001116   715.544790     0.000000 
  51.625520   919.000000     0.001088   711.157893     0.000000 
  51.642520   930.000000     0.001075   699.564084     0.000000 
  51.659520   954.000000     0.001048   684.793451     0.000000 
  51.676520   964.000000     0.001037   669.691565     0.000000 
  51.693520   904.000000     0.001106   655.153824     0.000000 
  51.710520   850.000000     0.001176   640.318072     0.000000 
  51.727520   882.000000     0.001134   623.480564     0.000000 
  51.744520   889.000000     0.001125   603.335657     0.000000 
  51.761520   824.000000     0.001214   579.882616     0.000000 
  51.778520   755.000000     0.001325   554.395727     0.000000 
  51.795520   757.000000     0.001321   528.682855     0.000000 
  51.812520   761.000000     0.001314   504.302426     0.000000 
  51.829520   710.000000     0.001408   482.211473     0.000000 
  51.846520   702.000000     0.001425   462.802177     0.000000 
  51.863520   682.000000     0.001466   446.075450     0.000000 
  51.880520   651.000000     0.001536   431.829973     0.000000 
  51.897520   614.000000     0.001629   419.772482     0.000000 
  51.914520   571.000000     0.001751   409.596689     0.000000 
  51.931520   567.000000     0.001764   401.008101     0.000000 
  51.948520   545.000000     0.001835   393.746288     0.000000 
  51.965520   525.000000     0.001905   387.582803     0.000000 
  51.982520   491.000000     0.002037   382.326454     0.000000 
  51.999530   499.000000     0.002004   377.813730     0.000000 
  52.016530   465.000000     0.002151   373.919111     0.000000 
  52.033530   447.000000     0.002237   370.532336     0.000000 
  52.050530   430.000000     0.002326   367.567696     0.000000 
  52.067530   420.000000     0.002381   364.955555     0.000000 
  52.084530   401.000000     0.002494   362.640590     0.000000 
  52.101530   425.000000     0.002353   360.577651     0.000000 
  52.118530   358.000000     0.002793   358.730551     0.000000 
  52.135530   370.000000     0.002703   357.069285     0.000000 
  52.152530   372.000000     0.002688   355.569403     0.000000 
  52.169530   344.000000     0.002907   354.210223     0.000000 
  52.186530   334.000000     0.002994   352.974597     0.000000 
  52.203530   364.000000     0.002747   351.847759     0.000000 
  52.220530   348.000000     0.002874   350.817295     0.000000 
  52.237530   379.000000     0.002639   349.872361     0.000000 
  52.254530   326.000000     0.003067   349.003747     0.000000 
  52.271530   353.000000     0.002833   348.203322     0.000000 
  52.288530   310.000000     0.003226   347.464127     0.000000 
  52.305530   305.000000     0.003279   346.779961     0.000000 
  52.322530   356.000000     0.002809   350.176455     0.000000 
  52.339530   311.000000     0.003215   349.623090     0.000000 
  52.356530   288.000000     0.003472   349.110958     0.000000 
  52.373530   297.000000     0.003367   348.636313     0.000000 
  52.390530   303.000000     0.003300   348.195897     0.000000 
  52.407530   330.000000     0.003030   347.786749     0.000000 
  52.424530   306.000000     0.003268   347.406277     0.000000 
  52.441530   273.000000     0.003663   347.052114     0.000000 
  52.458530   293.000000     0.003413   346.722184     0.000000 
  52.475530   289.000000     0.003460   346.414574     0.000000 
  52.492530   306.000000     0.003268   346.127604     0.000000 
  52.509530   267.000000     0.003745   345.859719     0.000000 
  52.526530   324.000000     0.003086   345.609546     0.000000 
  52.543530   324.000000     0.003086   345.375812     0.000000 
  52.560530   262.000000     0.003817   345.157388     0.000000 
  52.577530   327.000000     0.003058   344.953221     0.000000 
  52.594530   293.000000     0.003413   344.762378     0.000000 
  52.611530   343.000000     0.002915   344.583984     0.000000 
  52.628530   281.000000     0.003559   344.417261     0.000000 
  52.645530   329.000000     0.003040   344.261479     0.000000 
  52.662530   313.000000     0.003195   344.115986     0.000000 
  52.679530   316.000000     0.003165   343.980168     0.000000 
  52.696530   284.000000     0.003521   343.853476     0.000000 
  52.713530   313.000000     0.003195   343.735394     0.000000 
  52.730530   311.000000     0.003215   343.625455     0.000000 
  52.747530   317.000000     0.003155   343.523223     0.000000 
  52.764530   315.000000     0.003175   343.428302     0.000000 
  52.781530   310.000000     0.003226   343.340321     0.000000 
  52.798530   334.000000     0.002994   343.258941     0.000000 
  52.815530   321.000000     0.003115   343.183847     0.000000 
  52.832530   282.000000     0.003546   343.114750     0.000000 
  52.849530   317.000000     0.003155   343.051380     0.000000 
  52.866530   261.000000     0.003831   342.993489     0.000000 
  52.883540   280.000000     0.003571   342.940816     0.000000 
  52.900540   335.000000     0.002985   342.893212     0.000000 
  52.917540   303.000000     0.003300   342.850445     0.000000 
  52.934540   324.000000     0.003086   342.812333     0.000000 
  52.951540   309.000000     0.003236   342.778707     0.000000 
  52.968540   308.000000     0.003247   342.749409     0.000000 
  52.985540   295.000000     0.003390   342.724296     0.000000 
  53.002540   306.000000     0.003268   342.703231     0.000000 
  53.019540   320.000000     0.003125   342.686092     0.000000 
  53.036540   319.000000     0.003135   342.672763     0.000000 
  53.053540   298.000000     0.003356   342.544718     0.000000 
  53.070540   324.000000     0.003086   342.540277     0.000000 
  53.087540   343.000000     0.002915   342.539323     0.000000 
  53.104540   336.000000     0.002976   342.541771     0.000000 
  53.121540   339.000000     0.002950   342.547549     0.000000 
  53.138540   346.000000     0.002890   342.556587     0.000000 
  53.155540   354.000000     0.002825   342.568824     0.000000 
  53.172540   400.000000     0.002500   342.584201     0.000000 
  53.189540   371.000000     0.002695   342.602669     0.000000 
  53.206540   434.000000     0.002304   342.624181     0.000000 
  53.223540   447.000000     0.002237   342.648698     0.000000 
  53.240540   492.000000     0.002033   342.676181     0.000000 
  53.257540   506.000000     0.001976   343.867503     0.000000 
  53.274540   472.000000     0.002119   343.910791     0.000000 
  53.291540   539.000000     0.001855   343.957094     0.000000 
  53.308540   464.000000     0.002155   344.006393     0.000000 
  53.325540   450.000000     0.002222   344.058677     0.000000 
  53.342540   489.000000     0.002045   344.113936     0.000000 
  53.359540   448.000000     0.002232   344.172165     0.000000 
  53.376540   472.000000     0.002119   344.233361     0.000000 
  53.393540   467.000000     0.002141   344.297528     0.000000 
  53.410540   469.000000     0.002132   344.364669     0.000000 
  53.427540   451.000000     0.002217   344.434794     0.000000 
  53.444540   413.000000     0.002421   344.507913     0.000000 
  53.461540   416.000000     0.002404   344.584044     0.000000 
  53.478540   422.000000     0.002370   344.663202     0.000000 
  53.495540   391.000000     0.002558   344.745412     0.000000 
  53.512540   387.000000     0.002584   344.830695     0.000000 
  53.529540   385.000000     0.002597   344.919083     0.000000 
  53.546540   366.000000     0.002732   345.010604     0.000000 
  53.563540   339.000000     0.002950   345.105295     0.000000 
  53.580540   335.000000     0.002985   345.203190     0.000000 
  53.597540   337.000000     0.002967   349.355769     0.000000 
  53.614540   332.000000     0.003012   349.511931     0.000000 
  53.631540   303.000000     0.003300   349.672431     0.000000 
  53.648540   315.000000     0.003175   349.837339     0.000000 
  53.665540   342.000000     0.002924   350.006742     0.000000 
  53.682540   347.000000     0.002882   350.180717     0.000000 
  53.699540   339.000000     0.002950   350.359362     0.000000 
  53.716540   315.000000     0.003175   350.542762     0.000000 
  53.733540   331.000000     0.003021   350.731023     0.000000 
  53.750540   351.000000     0.002849   350.924242     0.000000 
  53.767540   335.000000     0.002985   351.122533     0.000000 
  53.784550   314.000000     0.003185   351.326123     0.000000 
  53.801550   315.000000     0.003175   351.534898     0.000000 
  53.818550   302.000000     0.003311   351.749093     0.000000 
  53.835550   305.000000     0.003279   351.968845     0.000000 
  53.852550   313.000000     0.003195   352.194280     0.000000 
  53.869550   319.000000     0.003135   352.425547     0.000000 
  53.886550   299.000000     0.003344   352.662785     0.000000 
  53.903550   306.000000     0.003268   352.906155     0.000000 
  53.920550   301.000000     0.003322   353.155809     0.000000 
  53.937550   291.000000     0.003436   353.411922     0.000000 
  53.954550   322.000000     0.003106   353.555512     0.000000 
  53.971550   332.000000     0.003012   353.826194     0.000000 
  53.988550   336.000000     0.002976   354.103854     0.000000 
  54.005550   348.000000     0.002874   354.388700     0.000000 
  54.022550   374.000000     0.002674   354.680927     0.000000 
  54.039550   319.000000     0.003135   354.980762     0.000000 
  54.056550   313.000000     0.003195   355.288416     0.000000 
  54.073550   341.000000     0.002933   355.604135     0.000000 
  54.090550   346.000000     0.002890   355.928151     0.000000 
  54.107550   308.000000     0.003247   356.260731     0.000000 
  54.124550   345.000000     0.002899   356.602126     0.000000 
  54.141550   356.000000     0.002809   356.952627     0.000000 
  54.158550   317.000000     0.003155   357.312509     0.000000 
  54.175550   331.000000     0.003021   357.682088     0.000000 
  54.192550   302.000000     0.003311   358.061663     0.000000 
  54.209550   346.000000     0.002890   358.451581     0.000000 
  54.226550   326.000000     0.003067   358.852167     0.000000 
  54.243550   309.000000     0.003236   358.971382     0.000000 
  54.260550   346.000000     0.002890   359.398329     0.000000 
  54.277550   330.000000     0.003030   359.837012     0.000000 
  54.294550   321.000000     0.003115   360.287825     0.000000 
  54.311550   338.000000     0.002959   360.751218     0.000000 
  54.328550   332.000000     0.003012   361.227624     0.000000 
  54.345550   346.000000     0.002890   361.717537     0.000000 
  54.362550   355.000000     0.002817   362.221428     0.000000 
  54.379550   372.000000     0.002688   362.739840     0.000000 
  54.396550   377.000000     0.002653   363.273292     0.000000 
  54.413550   330.000000     0.003030   363.822378     0.000000 
  54.430550   342.000000     0.002924   364.387671     0.000000 
  54.447550   351.000000     0.002849   364.969822     0.000000 
  54.464550   376.000000     0.002660   365.569464     0.000000 
  54.481550   377.000000     0.002653   366.187316     0.000000 
  54.498550   347.000000     0.002882   366.824073     0.000000 
  54.515550   317.000000     0.003155   367.480530     0.000000 
  54.532550   346.000000     0.002890   368.157457     0.000000 
  54.549550   368.000000     0.002717   368.855732     0.000000 
  54.566550   362.000000     0.002762   369.576211     0.000000 
  54.583550   330.000000     0.003030   371.482354     0.000000 
  54.600550   331.000000     0.003021   372.264279     0.000000 
  54.617550   348.000000     0.002874   373.071667     0.000000 
  54.634550   373.000000     0.002681   373.905584     0.000000 
  54.651550   375.000000     0.002667   374.767235     0.000000 
  54.668550   369.000000     0.002710   375.657811     0.000000 
  54.685560   380.000000     0.002632   376.579206     0.000000 
  54.702560   365.000000     0.002740   377.531669     0.000000 
  54.719560   352.000000     0.002841   378.517233     0.000000 
  54.736560   349.000000     0.002865   379.537394     0.000000 
  54.753560   354.000000     0.002825   380.593832     0.000000 
  54.770560   341.000000     0.002933   381.688228     0.000000 
  54.787560   365.000000     0.002740   382.822473     0.000000 
  54.804560   346.000000     0.002890   383.998459     0.000000 
  54.821560   343.000000     0.002915   385.218319     0.000000 
  54.838560   393.000000     0.002545   386.484191     0.000000 
  54.855560   366.000000     0.002732   387.798487     0.000000 
  54.872560   359.000000     0.002786   389.163633     0.000000 
  54.889560   354.000000     0.002825   390.582362     0.000000 
  54.906560   332.000000     0.003012   392.057435     0.000000 
  54.923560   336.000000     0.002976   393.591963     0.000000 
  54.940560   366.000000     0.002732   395.189096     0.000000 
  54.957560   391.000000     0.002558   397.627062     0.000000 
  54.974560   369.000000     0.002710   399.366277     0.000000 
  54.991560   364.000000     0.002747   401.179403     0.000000 
  55.008560   367.000000     0.002725   403.070594     0.000000 
  55.025560   350.000000     0.002857   405.044534     0.000000 
  55.042560   353.000000     0.002833   407.106017     0.000000 
  55.059560   390.000000     0.002564   409.260455     0.000000 
  55.076560   389.000000     0.002571   411.513408     0.000000 
  55.093560   365.000000     0.002740   413.871153     0.000000 
  55.110560   392.000000     0.002551   416.340164     0.000000 
  55.127560   378.000000     0.002646   418.927761     0.000000 
  55.144560   361.000000     0.002770   421.348652     0.000000 
  55.161560   395.000000     0.002532   424.199927     0.000000 
  55.178560   376.000000     0.002660   427.194805     0.000000 
  55.195560   390.000000     0.002564   430.343382     0.000000 
  55.212560   421.000000     0.002375   433.656193     0.000000 
  55.229560   372.000000     0.002688   437.145191     0.000000 
  55.246560   384.000000     0.002604   440.822903     0.000000 
  55.263560   400.000000     0.002500   444.703567     0.000000 
  55.280560   398.000000     0.002513   448.802170     0.000000 
  55.297560   407.000000     0.002457   453.135777     0.000000 
  55.314560   428.000000     0.002336   457.722439     0.000000 
  55.331560   365.000000     0.002740   462.582750     0.000000 
  55.348560   362.000000     0.002762   467.738599     0.000000 
  55.365560   440.000000     0.002273   473.215021     0.000000 
  55.382560   442.000000     0.002262   479.038766     0.000000 
  55.399560   445.000000     0.002247   485.240502     0.000000 
  55.416560   436.000000     0.002294   491.853184     0.000000 
  55.433560   404.000000     0.002475   498.914702     0.000000 
  55.450560   449.000000     0.002227   506.466011     0.000000 
  55.467560   474.000000     0.002110   514.554350     0.000000 
  55.484560   442.000000     0.002262   523.231101     0.000000 
  55.501560   433.000000     0.002309   532.555743     0.000000 
  55.518560   460.000000     0.002174   542.593399     0.000000 
  55.535560   469.000000     0.002132   553.419763     0.000000 
  55.552560   460.000000     0.002174   565.118302     0.000000 
  55.569570   470.000000     0.002128   577.794220     0.000000 
  55.586570   520.000000     0.001923   591.541039     0.000000 
  55.603570   527.000000     0.001898   606.492917     0.000000 
  55.620570   506.000000     0.001976   622.792514     0.000000 
  55.637570   548.000000     0.001825   640.607966     0.000000 
  55.654570   539.000000     0.001855   660.130038     0.000000 
  55.671570   562.000000     0.001779   681.585410     0.000000 
  55.688570   608.000000     0.001645   705.234377     0.000000 
  55.705570   624.000000     0.001603   731.389561     0.000000 
  55.722570   671.000000     0.001490   760.415251     0.000000 
  55.739570   722.000000     0.001385   792.754706     0.000000 
  55.756570   749.000000     0.001335   828.933021     0.000000 
  55.773570   775.000000     0.001290   869.597701     0.000000 
  55.790570   801.000000     0.001248   915.527217     0.000000 
  55.807570   906.000000     0.001104   967.690503     0.000000 
  55.824570   964.000000     0.001037  1027.261748     0.000000 
  55.841570  1018.000000     0.000982  1095.703409     0.000000 
  55.858570  1149.000000     0.000870  1174.782542     0.000000 
  55.875570  1270.000000     0.000787  1266.677649     0.000000 
  55.892570  1425.000000     0.000702  1373.981976     0.000000 
  55.909570  1658.000000     0.000603  1499.825418     0.000000 
  55.926570  1842.000000     0.000543  1647.831142     0.000000 
  55.943570  2016.000000     0.000496  1822.215567     0.000000 
  55.960570  2347.000000     0.000426  2027.603765     0.000000 
  55.977570  2682.000000     0.000373  2268.953612     0.000000 
  55.994570  3020.000000     0.000331  2550.914242     0.000000 
  56.011570  3333.000000     0.000300  2877.034696     0.000000 
  56.028570  3805.000000     0.000263  3247.806468     0.000000 
  56.045570  4023.000000     0.000249  3658.033714     0.000000 
  56.062570  4291.000000     0.000233  4092.834876     0.000000 
  56.079570  4472.000000     0.000224  4524.241552     0.000000 
  56.096570  4659.000000     0.000215  4910.996405     0.000000 
  56.113570  4685.000000     0.000213  5205.863767     0.000000 
  56.130570  4788.000000     0.000209  5371.825919     0.000000 
  56.147570  4831.000000     0.000207  5398.632047     0.000000 
  56.164570  4869.000000     0.000205  5308.858716     0.000000 
  56.181570  4835.000000     0.000207  5146.134809     0.000000 
  56.198570  4705.000000     0.000213  4955.974216     0.000000 
  56.215570  4776.000000     0.000209  4769.640965     0.000000 
  56.232570  4716.000000     0.000212  4597.577158     0.000000 
  56.249570  4473.000000     0.000224  4431.005006     0.000000 
  56.266570  4271.000000     0.000234  4249.721446     0.000000 
  56.283570  4117.000000     0.000243  4033.858121     0.000000 
  56.300570  3806.000000     0.000263  3775.017754     0.000000 
  56.317570  3471.000000     0.000288  3480.266592     0.000000 
  56.334570  3301.000000     0.000303  3167.647551     0.000000 
  56.351570  3054.000000     0.000327  2857.368466     0.000000 
  56.368570  2677.000000     0.000374  2565.931555     0.000000 
  56.385570  2519.000000     0.000397  2301.417707     0.000000 
  56.402570  2317.000000     0.000432  2067.789905     0.000000 
  56.419570  2143.000000     0.000467  1864.945443     0.000000 
  56.436570  1959.000000     0.000510  1690.547292     0.000000 
  56.453570  1759.000000     0.000569  1541.447887     0.000000 
  56.470580  1656.000000     0.000604  1414.192361     0.000000 
  56.487580  1471.000000     0.000680  1305.758796     0.000000 
  56.504580  1359.000000     0.000736  1213.180764     0.000000 
  56.521580  1195.000000     0.000837  1133.973839     0.000000 
  56.538580  1117.000000     0.000895  1065.994692     0.000000 
  56.555580  1071.000000     0.000934  1007.459276     0.000000 
  56.572580  1000.000000     0.001000   956.867559     0.000000 
  56.589580   894.000000     0.001119   912.994236     0.000000 
  56.606580   822.000000     0.001217   874.824695     0.000000 
  56.623580   786.000000     0.001272   841.538801     0.000000 
  56.640580   772.000000     0.001295   812.462904     0.000000 
  56.657580   761.000000     0.001314   787.054370     0.000000 
  56.674580   721.000000     0.001387   764.869177     0.000000 
  56.691580   698.000000     0.001433   745.549627     0.000000 
  56.708580   692.000000     0.001445   728.805124     0.000000 
  56.725580   664.000000     0.001506   714.402614     0.000000 
  56.742580   653.000000     0.001531   702.157710     0.000000 
  56.759580   638.000000     0.001567   691.926335     0.000000 
  56.776580   596.000000     0.001678   683.604065     0.000000 
  56.793580   564.000000     0.001773   677.117501     0.000000 
  56.810580   589.000000     0.001698   672.430964     0.000000 
  56.827580   641.000000     0.001560   669.536505     0.000000 
  56.844580   619.000000     0.001616   668.468473     0.000000 
  56.861580   578.000000     0.001730   669.291203     0.000000 
  56.878580   607.000000     0.001647   672.123256     0.000000 
  56.895580   614.000000     0.001629   677.121316     0.000000 
  56.912580   653.000000     0.001531   684.516867     0.000000 
  56.929580   668.000000     0.001497   694.593138     0.000000 
  56.946580   667.000000     0.001499   707.737513     0.000000 
  56.963580   714.000000     0.001401   724.405140     0.000000 
  56.980580   728.000000     0.001374   745.190438     0.000000 
  56.997580   736.000000     0.001359   770.766595     0.000000 
  57.014580   753.000000     0.001328   801.978999     0.000000 
  57.031580   758.000000     0.001319   839.744228     0.000000 
  57.048580   793.000000     0.001261   885.163946     0.000000 
  57.065580   846.000000     0.001182   939.354400     0.000000 
  57.082580   911.000000     0.001098  1003.555880     0.000000 
  57.099580   992.000000     0.001008  1078.822749     0.000000 
  57.116580  1124.000000     0.000890  1166.022559     0.000000 
  57.133580  1202.000000     0.000832  1265.223342     0.000000 
  57.150580  1322.000000     0.000756  1375.339095     0.000000 
  57.167580  1450.000000     0.000690  1493.093075     0.000000 
  57.184580  1557.000000     0.000642  1612.359403     0.000000 
  57.201580  1707.000000     0.000586  1723.784869     0.000000 
  57.218580  1793.000000     0.000558  1815.754535     0.000000 
  57.235580  1812.000000     0.000552  1877.647861     0.000000 
  57.252580  1886.000000     0.000530  1903.353617     0.000000 
  57.269580  1995.000000     0.000501  1894.616358     0.000000 
  57.286580  1954.000000     0.000512  1859.599938     0.000000 
  57.303580  1901.000000     0.000526  1809.746738     0.000000 
  57.320580  1805.000000     0.000554  1755.004528     0.000000 
  57.337580  1774.000000     0.000564  1701.236115     0.000000 
  57.354590  1702.000000     0.000588  1649.324862     0.000000 
  57.371590  1591.000000     0.000629  1596.247876     0.000000 
  57.388590  1509.000000     0.000663  1537.086194     0.000000 
  57.405590  1432.000000     0.000698  1468.001272     0.000000 
  57.422590  1372.000000     0.000729  1388.171447     0.000000 
  57.439590  1299.000000     0.000770  1300.325424     0.000000 
  57.456590  1188.000000     0.000842  1209.181363     0.000000 
  57.473590  1102.000000     0.000907  1119.639752     0.000000 
  57.490590  1001.000000     0.000999  1035.451850     0.000000 
  57.507590   882.000000     0.001134   958.774541     0.000000 
  57.524590   841.000000     0.001189   890.514301     0.000000 
  57.541590   782.000000     0.001279   830.595621     0.000000 
  57.558590   721.000000     0.001387   778.517907     0.000000 
  57.575590   671.000000     0.001490   733.462159     0.000000 
  57.592590   630.000000     0.001587   694.611901     0.000000 
  57.609590   586.000000     0.001706   661.104926     0.000000 
  57.626590   566.000000     0.001767   632.199380     0.000000 
  57.643590   560.000000     0.001786   607.186938     0.000000 
  57.660590   525.000000     0.001905   585.487355     0.000000 
  57.677590   510.000000     0.001961   566.569493     0.000000 
  57.694590   499.000000     0.002004   550.009758     0.000000 
  57.711590   459.000000     0.002179   535.821895     0.000000 
  57.728590   450.000000     0.002222   522.928126     0.000000 
  57.745590   462.000000     0.002165   511.456748     0.000000 
  57.762590   443.000000     0.002257   501.205917     0.000000 
  57.779590   440.000000     0.002273   491.997790     0.000000 
  57.796590   431.000000     0.002320   483.695503     0.000000 
  57.813590   441.000000     0.002268   476.177204     0.000000 
  57.830590   429.000000     0.002331   469.348808     0.000000 
  57.847590   383.000000     0.002611   463.125009     0.000000 
  57.864590   358.000000     0.002793   457.439438     0.000000 
  57.881590   384.000000     0.002604   452.230662     0.000000 
  57.898590   405.000000     0.002469   447.450499     0.000000 
  57.915590   406.000000     0.002463   443.053503     0.000000 
  57.932590   406.000000     0.002463   439.003809     0.000000 
  57.949590   385.000000     0.002597   435.267062     0.000000 
  57.966590   354.000000     0.002825   431.816053     0.000000 
  57.983590   383.000000     0.002611   428.624391     0.000000 
  58.000590   360.000000     0.002778   425.671147     0.000000 
  58.017590   358.000000     0.002793   422.935813     0.000000 
  58.034590   392.000000     0.002551   420.402130     0.000000 
  58.051590   381.000000     0.002625   418.054038     0.000000 
  58.068590   345.000000     0.002899   415.878823     0.000000 
  58.085590   335.000000     0.002985   413.863844     0.000000 
  58.102590   372.000000     0.002688   411.999132     0.000000 
  58.119590   385.000000     0.002597   410.274724     0.000000 
  58.136590   356.000000     0.002809   408.682814     0.000000 
  58.153590   373.000000     0.002681   407.215576     0.000000 
  58.170590   337.000000     0.002967   405.866941     0.000000 
  58.187590   355.000000     0.002817   404.630826     0.000000 
  58.204590   378.000000     0.002646   403.502590     0.000000 
  58.221590   341.000000     0.002933   402.477604     0.000000 
  58.238590   352.000000     0.002841   401.552434     0.000000 
  58.255600   343.000000     0.002915   400.723242     0.000000 
  58.272600   379.000000     0.002639   399.988611     0.000000 
  58.289600   379.000000     0.002639   399.345766     0.000000 
  58.306600   330.000000     0.003030   398.793262     0.000000 
  58.323600   350.000000     0.002857   398.329861     0.000000 
  58.340600   348.000000     0.002874   397.955015     0.000000 
  58.357600   364.000000     0.002747   397.668471     0.000000 
  58.374600   368.000000     0.002717   397.470564     0.000000 
  58.391600   356.000000     0.002809   397.362032     0.000000 
  58.408600   390.000000     0.002564   397.344122     0.000000 
  58.425600   352.000000     0.002841   397.418616     0.000000 
  58.442600   362.000000     0.002762   397.587748     0.000000 
  58.459600   371.000000     0.002695   397.854444     0.000000 
  58.476600   393.000000     0.002545   398.222052     0.000000 
  58.493600   405.000000     0.002469   398.694803     0.000000 
  58.510600   387.000000     0.002584   399.277344     0.000000 
  58.527600   358.000000     0.002793   399.975444     0.000000 
  58.544600   361.000000     0.002770   400.795318     0.000000 
  58.561600   348.000000     0.002874   401.744604     0.000000 
  58.578600   362.000000     0.002762   402.831443     0.000000 
  58.595600   369.000000     0.002710   404.065804     0.000000 
  58.612600   374.000000     0.002674   405.458267     0.000000 
  58.629600   388.000000     0.002577   407.021758     0.000000 
  58.646600   374.000000     0.002674   408.770012     0.000000 
  58.663600   378.000000     0.002646   410.719804     0.000000 
  58.680600   374.000000     0.002674   412.889033     0.000000 
  58.697600   398.000000     0.002513   415.299620     0.000000 
  58.714600   412.000000     0.002427   417.975137     0.000000 
  58.731600   405.000000     0.002469   420.944599     0.000000 
  58.748600   396.000000     0.002525   424.239601     0.000000 
  58.765600   394.000000     0.002538   427.899357     0.000000 
  58.782600   394.000000     0.002538   431.967311     0.000000 
  58.799600   381.000000     0.002625   436.497980     0.000000 
  58.816600   421.000000     0.002375   441.552998     0.000000 
  58.833600   452.000000     0.002212   447.210589     0.000000 
  58.850600   450.000000     0.002222   453.560859     0.000000 
  58.867600   441.000000     0.002268   460.718980     0.000000 
  58.884600   468.000000     0.002137   468.819117     0.000000 
  58.901600   458.000000     0.002183   478.032484     0.000000 
  58.918600   466.000000     0.002146   488.558351     0.000000 
  58.935600   513.000000     0.001949   500.647971     0.000000 
  58.952600   531.000000     0.001883   514.589569     0.000000 
  58.969600   535.000000     0.001869   530.738777     0.000000 
  58.986600   561.000000     0.001783   545.511139     0.000000 
  59.003600   572.000000     0.001748   567.395152     0.000000 
  59.020600   572.000000     0.001748   592.870139     0.000000 
  59.037600   644.000000     0.001553   622.526042     0.000000 
  59.054600   658.000000     0.001520   656.961848     0.000000 
  59.071600   718.000000     0.001393   696.828550     0.000000 
  59.088600   777.000000     0.001287   742.714969     0.000000 
  59.105600   854.000000     0.001171   795.163793     0.000000 
  59.122600   919.000000     0.001088   854.468286     0.000000 
  59.139600  1016.000000     0.000984   920.589162     0.000000 
  59.156610  1072.000000     0.000933   992.836029     0.000000 
  59.173610  1220.000000     0.000820  1069.434924     0.000000 
  59.190610  1314.000000     0.000761  1147.358447     0.000000 
  59.207610  1483.000000     0.000674  1222.015389     0.000000 
  59.224610  1579.000000     0.000633  1287.628623     0.000000 
  59.241610  1635.000000     0.000612  1338.191521     0.000000 
  59.258610  1769.000000     0.000565  1369.329314     0.000000 
  59.275610  1757.000000     0.000569  1379.626000     0.000000 
  59.292610  1719.000000     0.000582  1371.415105     0.000000 
  59.309610  1631.000000     0.000613  1349.928810     0.000000 
  59.326610  1601.000000     0.000625  1320.427669     0.000000 
  59.343610  1596.000000     0.000627  1287.223819     0.000000 
  59.360610  1517.000000     0.000659  1253.199832     0.000000 
  59.377610  1448.000000     0.000691  1218.605512     0.000000 
  59.394610  1401.000000     0.000714  1181.972351     0.000000 
  59.411610  1349.000000     0.000741  1141.153738     0.000000 
  59.428610  1300.000000     0.000769  1094.600870     0.000000 
  59.445610  1240.000000     0.000806  1042.167445     0.000000 
  59.462610  1194.000000     0.000838   985.314168     0.000000 
  59.479610  1099.000000     0.000910   926.462065     0.000000 
  59.496610   977.000000     0.001024   868.207715     0.000000 
  59.513610   913.000000     0.001095   812.685097     0.000000 
  59.530610   844.000000     0.001185   761.285971     0.000000 
  59.547610   782.000000     0.001279   714.741923     0.000000 
  59.564610   729.000000     0.001372   673.225891     0.000000 
  59.581610   681.000000     0.001468   636.608598     0.000000 
  59.598610   618.000000     0.001618   604.532126     0.000000 
  59.615610   599.000000     0.001669   576.582094     0.000000 
  59.632610   567.000000     0.001764   552.284765     0.000000 
  59.649610   524.000000     0.001908   531.202236     0.000000 
  59.666610   492.000000     0.002033   512.899569     0.000000 
  59.683610   476.000000     0.002101   497.000226     0.000000 
  59.700610   456.000000     0.002193   483.150425     0.000000 
  59.717610   443.000000     0.002257   471.053924     0.000000 
  59.734610   430.000000     0.002326   460.441531     0.000000 
  59.751610   433.000000     0.002309   451.093327     0.000000 
  59.768610   407.000000     0.002457   442.814150     0.000000 
  59.785610   430.000000     0.002326   435.447658     0.000000 
  59.802610   421.000000     0.002375   428.857092     0.000000 
  59.819610   380.000000     0.002632   422.934310     0.000000 
  59.836610   382.000000     0.002618   417.585027     0.000000 
  59.853610   396.000000     0.002525   412.735036     0.000000 
  59.870610   388.000000     0.002577   408.319117     0.000000 
  59.887610   362.000000     0.002762   404.285765     0.000000 
  59.904610   394.000000     0.002538   400.588959     0.000000 
  59.921610   392.000000     0.002551   397.192041     0.000000 
  59.938610   350.000000     0.002857   390.040816     0.000000 
  59.955610   398.000000     0.002513   387.185534     0.000000 
  59.972610   374.000000     0.002674   384.544358     0.000000 
  59.989610   355.000000     0.002817   382.097015     0.000000 
  60.006610   364.000000     0.002747   379.824356     0.000000 
  60.023610   392.000000     0.002551   377.710750     0.000000 
  60.040620   319.000000     0.003135   375.740118     0.000000 
  60.057620   362.000000     0.002762   373.902530     0.000000 
  60.074620   354.000000     0.002825   372.184920     0.000000 
  60.091620   314.000000     0.003185   370.577575     0.000000 
  60.108620   306.000000     0.003268   369.070986     0.000000 
  60.125620   331.000000     0.003021   367.657357     0.000000 
  60.142620   322.000000     0.003106   366.328994     0.000000 
  60.159620   310.000000     0.003226   365.079589     0.000000 
  60.176620   330.000000     0.003030   363.902860     0.000000 
  60.193620   342.000000     0.002924   362.793659     0.000000 
  60.210620   337.000000     0.002967   361.746821     0.000000 
  60.227620   352.000000     0.002841   359.609279     0.000000 
  60.244620   355.000000     0.002817   358.688071     0.000000 
  60.261620   328.000000     0.003049   357.816969     0.000000 
  60.278620   354.000000     0.002825   356.992411     0.000000 
  60.295620   345.000000     0.002899   356.211486     0.000000 
  60.312620   330.000000     0.003030   355.471207     0.000000 
  60.329620   358.000000     0.002793   354.769133     0.000000 
  60.346620   349.000000     0.002865   354.102750     0.000000 
  60.363620   357.000000     0.002801   353.470001     0.000000 
  60.380620   349.000000     0.002865   352.868756     0.000000 
  60.397620   348.000000     0.002874   352.297275     0.000000 
  60.414620   336.000000     0.002976   351.753744     0.000000 
  60.431620   331.000000     0.003021   351.236687     0.000000 
  60.448620   322.000000     0.003106   350.744553     0.000000 
  60.465620   329.000000     0.003040   350.276084     0.000000 
  60.482620   342.000000     0.002924   349.829950     0.000000 
  60.499620   346.000000     0.002890   349.405073     0.000000 
  60.516620   321.000000     0.003115   349.000311     0.000000 
  60.533620   340.000000     0.002941   348.614740     0.000000 
  60.550620   351.000000     0.002849   348.247375     0.000000 
  60.567620   337.000000     0.002967   347.897421     0.000000 
  60.584620   352.000000     0.002841   347.564029     0.000000 
  60.601620   355.000000     0.002817   347.246513     0.000000 
  60.618620   329.000000     0.003040   346.944140     0.000000 
  60.635620   298.000000     0.003356   346.656320     0.000000 
  60.652620   304.000000     0.003289   346.382419     0.000000 
  60.669620   323.000000     0.003096   346.121929     0.000000 
  60.686620   313.000000     0.003195   345.874303     0.000000 
  60.703620   317.000000     0.003155   345.639104     0.000000 
  60.720620   331.000000     0.003021   345.415861     0.000000 
  60.737620   366.000000     0.002732   345.204201     0.000000 
  60.754620   344.000000     0.002907   345.003718     0.000000 
  60.771620   333.000000     0.003003   344.814096     0.000000 
  60.788620   336.000000     0.002976   344.634988     0.000000 
  60.805620   346.000000     0.002890   344.466127     0.000000 
  60.822620   329.000000     0.003040   344.307221     0.000000 
  60.839620   320.000000     0.003125   344.158047     0.000000 
  60.856620   315.000000     0.003175   344.018363     0.000000 
  60.873620   322.000000     0.003106   343.887985     0.000000 
  60.890620   326.000000     0.003067   343.766715     0.000000 
  60.907620   337.000000     0.002967   343.654410     0.000000 
  60.924620   323.000000     0.003096   343.550913     0.000000 
  60.941630   336.000000     0.002976   343.456062     0.000000 
  60.958630   325.000000     0.003077   343.369850     0.000000 
  60.975630   343.000000     0.002915   343.292145     0.000000 
  60.992630   346.000000     0.002890   343.222868     0.000000 
  61.009630   377.000000     0.002653   343.399259     0.000000 
  61.026630   336.000000     0.002976   343.454288     0.000000 
  61.043630   343.000000     0.002915   343.413330     0.000000 
  61.060630   306.000000     0.003268   343.380745     0.000000 
  61.077630   338.000000     0.002959   343.356558     0.000000 
  61.094630   306.000000     0.003268   343.340799     0.000000 
  61.111630   340.000000     0.002941   343.333526     0.000000 
  61.128630   343.000000     0.002915   343.334809     0.000000 
  61.145630   333.000000     0.003003   343.344739     0.000000 
  61.162630   339.000000     0.002950   343.363426     0.000000 
  61.179630   337.000000     0.002967   343.390997     0.000000 
  61.196630   339.000000     0.002950   343.427603     0.000000 
  61.213630   319.000000     0.003135   343.473412     0.000000 
  61.230630   317.000000     0.003155   343.528621     0.000000 
  61.247630   366.000000     0.002732   342.445374     0.000000 
  61.264630   328.000000     0.003049   342.529720     0.000000 
  61.281630   329.000000     0.003040   342.624057     0.000000 
  61.298630   308.000000     0.003247   342.728688     0.000000 
  61.315630   334.000000     0.002994   342.843925     0.000000 
  61.332630   344.000000     0.002907   342.970133     0.000000 
  61.349630   347.000000     0.002882   343.107683     0.000000 
  61.366630   326.000000     0.003067   343.257010     0.000000 
  61.383630   307.000000     0.003257   343.418552     0.000000 
  61.400630   319.000000     0.003135   343.592824     0.000000 
  61.417630   348.000000     0.002874   343.780343     0.000000 
  61.434630   358.000000     0.002793   343.981716     0.000000 
  61.451630   340.000000     0.002941   344.197550     0.000000 
  61.468630   318.000000     0.003145   344.428560     0.000000 
  61.485630   321.000000     0.003115   344.675459     0.000000 
  61.502630   342.000000     0.002924   344.939088     0.000000 
  61.519630   339.000000     0.002950   345.220287     0.000000 
  61.536630   340.000000     0.002941   345.520043     0.000000 
  61.553630   355.000000     0.002817   345.839346     0.000000 
  61.570630   340.000000     0.002941   346.179360     0.000000 
  61.587630   339.000000     0.002950   346.541255     0.000000 
  61.604630   345.000000     0.002899   346.926406     0.000000 
  61.621630   327.000000     0.003058   347.336198     0.000000 
  61.638630   365.000000     0.002740   347.772261     0.000000 
  61.655630   371.000000     0.002695   348.236242     0.000000 
  61.672630   337.000000     0.002967   348.730081     0.000000 
  61.689630   343.000000     0.002915   349.255746     0.000000 
  61.706630   351.000000     0.002849   349.815556     0.000000 
  61.723630   363.000000     0.002755   350.411872     0.000000 
  61.740630   351.000000     0.002849   351.047482     0.000000 
  61.757630   355.000000     0.002817   351.725236     0.000000 
  61.774630   338.000000     0.002959   352.448502     0.000000 
  61.791630   360.000000     0.002778   353.220743     0.000000 
  61.808630   384.000000     0.002604   354.046055     0.000000 
  61.825630   384.000000     0.002604   354.928676     0.000000 
  61.842640   343.000000     0.002915   355.874201     0.000000 
  61.859640   383.000000     0.002611   356.886751     0.000000 
  61.876640   412.000000     0.002427   357.973065     0.000000 
  61.893640   356.000000     0.002809   359.139669     0.000000 
  61.910640   402.000000     0.002488   360.394323     0.000000 
  61.927640   368.000000     0.002717   361.745275     0.000000 
  61.944640   401.000000     0.002494   363.202391     0.000000 
  61.961640   429.000000     0.002331   364.776297     0.000000 
  61.978640   430.000000     0.002326   366.479813     0.000000 
  61.995640   405.000000     0.002469   368.326981     0.000000 
  62.012640   420.000000     0.002381   370.334935     0.000000 
  62.029640   408.000000     0.002451   372.522812     0.000000 
  62.046640   402.000000     0.002488   374.914253     0.000000 
  62.063640   373.000000     0.002681   377.536185     0.000000 
  62.080640   391.000000     0.002558   380.422199     0.000000 
  62.097640   443.000000     0.002257   383.611127     0.000000 
  62.114640   463.000000     0.002160   387.151584     0.000000 
  62.131640   431.000000     0.002320   391.100101     0.000000 
  62.148640   443.000000     0.002257   395.527102     0.000000 
  62.165640   433.000000     0.002309   400.514039     0.000000 
  62.182640   483.000000     0.002070   406.160988     0.000000 
  62.199640   484.000000     0.002066   412.581806     0.000000 
  62.216640   509.000000     0.001965   419.913400     0.000000 
  62.233640   507.000000     0.001972   428.307480     0.000000 
  62.250640   547.000000     0.001828   437.941471     0.000000 
  62.267640   509.000000     0.001965   449.005124     0.000000 
  62.284640   556.000000     0.001799   461.712995     0.000000 
  62.301640   556.000000     0.001799   476.284043     0.000000 
  62.318640   615.000000     0.001626   492.955126     0.000000 
  62.335640   615.000000     0.001626   511.951063     0.000000 
  62.352640   689.000000     0.001451   533.496453     0.000000 
  62.369640   762.000000     0.001312   557.770828     0.000000 
  62.386640   798.000000     0.001253   584.909888     0.000000 
  62.403640   874.000000     0.001144   614.934154     0.000000 
  62.420640   918.000000     0.001089   647.720827     0.000000 
  62.437640   977.000000     0.001024   682.893196     0.000000 
  62.454640  1081.000000     0.000925   719.751191     0.000000 
  62.471640  1121.000000     0.000892   756.842355     0.000000 
  62.488640  1210.000000     0.000826   792.739876     0.000000 
  62.505640  1327.000000     0.000754   826.015642     0.000000 
  62.522640  1325.000000     0.000755   854.026613     0.000000 
  62.539640  1344.000000     0.000744   874.871955     0.000000 
  62.556640  1375.000000     0.000727   887.358744     0.000000 
  62.573640  1405.000000     0.000712   891.416946     0.000000 
  62.590640  1415.000000     0.000707   888.009486     0.000000 
  62.607640  1402.000000     0.000713   878.864475     0.000000 
  62.624640  1345.000000     0.000743   865.865268     0.000000 
  62.641640  1293.000000     0.000773   850.607072     0.000000 
  62.658640  1262.000000     0.000792   834.052122     0.000000 
  62.675640  1277.000000     0.000783   816.480223     0.000000 
  62.692640  1222.000000     0.000818   797.609988     0.000000 
  62.709640  1185.000000     0.000844   776.901710     0.000000 
  62.726650  1111.000000     0.000900   753.871700     0.000000 
  62.743650  1039.000000     0.000962   728.451981     0.000000 
  62.760650  1038.000000     0.000963   700.996683     0.000000 
  62.777650  1001.000000     0.000999   672.272666     0.000000 
  62.794650   947.000000     0.001056   643.222569     0.000000 
  62.811650   834.000000     0.001199   614.757171     0.000000 
  62.828650   810.000000     0.001235   587.610797     0.000000 
  62.845650   752.000000     0.001330   562.278221     0.000000 
  62.862650   680.000000     0.001471   539.042737     0.000000 
  62.879650   674.000000     0.001484   518.001610     0.000000 
  62.896650   604.000000     0.001656   499.139982     0.000000 
  62.913650   581.000000     0.001721   482.352605     0.000000 
  62.930650   595.000000     0.001681   467.499868     0.000000 
  62.947650   544.000000     0.001838   454.409415     0.000000 
  62.964650   542.000000     0.001845   442.910949     0.000000 
  62.981650   456.000000     0.002193   432.827526     0.000000 
  62.998650   455.000000     0.002198   423.997535     0.000000 
  63.015650   444.000000     0.002252   416.263634     0.000000 
  63.032650   439.000000     0.002278   409.487421     0.000000 
  63.049650   423.000000     0.002364   403.539178     0.000000 
  63.066650   398.000000     0.002513   398.307813     0.000000 
  63.083650   402.000000     0.002488   393.692142     0.000000 
  63.100650   429.000000     0.002331   390.053045     0.000000 
  63.117650   404.000000     0.002475   386.426517     0.000000 
  63.134650   406.000000     0.002463   383.193620     0.000000 
  63.151650   379.000000     0.002639   380.300043     0.000000 
  63.168650   360.000000     0.002778   377.701806     0.000000 
  63.185650   403.000000     0.002481   375.360625     0.000000 
  63.202650   371.000000     0.002695   373.245733     0.000000 
  63.219650   381.000000     0.002625   371.330290     0.000000 
  63.236650   372.000000     0.002688   369.592746     0.000000 
  63.253650   353.000000     0.002833   368.014108     0.000000 
  63.270650   327.000000     0.003058   366.579058     0.000000 
  63.287650   335.000000     0.002985   365.273891     0.000000 
  63.304650   358.000000     0.002793   364.087483     0.000000 
  63.321650   380.000000     0.002632   363.009722     0.000000 
  63.338650   357.000000     0.002801   362.032357     0.000000 
  63.355650   366.000000     0.002732   361.147788     0.000000 
  63.372650   353.000000     0.002833   360.349811     0.000000 
  63.389650   361.000000     0.002770   359.632661     0.000000 
  63.406650   363.000000     0.002755   358.991655     0.000000 
  63.423650   374.000000     0.002674   358.422427     0.000000 
  63.440650   375.000000     0.002667   357.921482     0.000000 
  63.457650   363.000000     0.002755   357.485571     0.000000 
  63.474650   346.000000     0.002890   357.112165     0.000000 
  63.491650   374.000000     0.002674   356.798941     0.000000 
  63.508650   369.000000     0.002710   356.544188     0.000000 
  63.525650   350.000000     0.002857   356.346385     0.000000 
  63.542650   347.000000     0.002882   356.204543     0.000000 
  63.559650   367.000000     0.002725   356.117864     0.000000 
  63.576650   374.000000     0.002674   355.318694     0.000000 
  63.593650   361.000000     0.002770   355.347585     0.000000 
  63.610650   391.000000     0.002558   355.431466     0.000000 
  63.627660   395.000000     0.002532   355.570996     0.000000 
  63.644660   361.000000     0.002770   355.767011     0.000000 
  63.661660   368.000000     0.002717   356.020839     0.000000 
  63.678660   392.000000     0.002551   356.334195     0.000000 
  63.695660   345.000000     0.002899   356.709111     0.000000 
  63.712660   340.000000     0.002941   357.148101     0.000000 
  63.729660   349.000000     0.002865   357.654077     0.000000 
  63.746660   353.000000     0.002833   358.230495     0.000000 
  63.763660   345.000000     0.002899   358.881314     0.000000 
  63.780660   371.000000     0.002695   359.611143     0.000000 
  63.797660   367.000000     0.002725   360.425252     0.000000 
  63.814660   351.000000     0.002849   361.329725     0.000000 
  63.831660   388.000000     0.002577   362.331550     0.000000 
  63.848660   382.000000     0.002618   363.438796     0.000000 
  63.865660   384.000000     0.002604   364.660813     0.000000 
  63.882660   352.000000     0.002841   366.008477     0.000000 
  63.899660   378.000000     0.002646   367.494540     0.000000 
  63.916660   382.000000     0.002618   369.133995     0.000000 
  63.933660   353.000000     0.002833   370.944649     0.000000 
  63.950660   400.000000     0.002500   372.947670     0.000000 
  63.967660   369.000000     0.002710   375.168443     0.000000 
  63.984660   445.000000     0.002247   377.637350     0.000000 
  64.001660   388.000000     0.002577   380.390962     0.000000 
  64.018660   383.000000     0.002611   383.473022     0.000000 
  64.035660   411.000000     0.002433   386.935948     0.000000 
  64.052660   409.000000     0.002445   390.841880     0.000000 
  64.069660   376.000000     0.002660   395.264313     0.000000 
  64.086660   432.000000     0.002315   400.288903     0.000000 
  64.103660   429.000000     0.002331   406.014880     0.000000 
  64.120660   413.000000     0.002421   412.555132     0.000000 
  64.137660   411.000000     0.002433   420.036917     0.000000 
  64.154660   433.000000     0.002309   428.600633     0.000000 
  64.171660   482.000000     0.002075   438.399308     0.000000 
  64.188660   456.000000     0.002193   449.595449     0.000000 
  64.205660   451.000000     0.002217   462.358702     0.000000 
  64.222660   440.000000     0.002273   476.859972     0.000000 
  64.239660   518.000000     0.001931   493.266087     0.000000 
  64.256660   520.000000     0.001923   511.729240     0.000000 
  64.273660   585.000000     0.001709   532.375439     0.000000 
  64.290660   600.000000     0.001667   555.284255     0.000000 
  64.307660   669.000000     0.001495   580.463693     0.000000 
  64.324660   732.000000     0.001366   607.811068     0.000000 
  64.341660   770.000000     0.001299   637.065077     0.000000 
  64.358660   788.000000     0.001269   667.744446     0.000000 
  64.375660   836.000000     0.001196   699.089428     0.000000 
  64.392660   879.000000     0.001138   730.022129     0.000000 
  64.409660   947.000000     0.001056   759.165492     0.000000 
  64.426660   964.000000     0.001037   784.956119     0.000000 
  64.443660   956.000000     0.001046   805.869276     0.000000 
  64.460660   984.000000     0.001016   820.722580     0.000000 
  64.477660   958.000000     0.001044   828.953680     0.000000 
  64.494660   933.000000     0.001072   830.757003     0.000000 
  64.511660   963.000000     0.001038   826.994927     0.000000 
  64.528670   971.000000     0.001030   818.922870     0.000000 
  64.545670   935.000000     0.001070   807.860590     0.000000 
  64.562670   922.000000     0.001085   794.866497     0.000000 
  64.579670   943.000000     0.001060   780.580914     0.000000 
  64.596670   932.000000     0.001073   765.194630     0.000000 
  64.613670   927.000000     0.001079   748.548397     0.000000 
  64.630670   874.000000     0.001144   730.321243     0.000000 
  64.647670   831.000000     0.001203   710.249680     0.000000 
  64.664670   796.000000     0.001256   688.303911     0.000000 
  64.681670   749.000000     0.001335   664.762326     0.000000 
  64.698670   736.000000     0.001359   640.167717     0.000000 
  64.715670   681.000000     0.001468   615.203628     0.000000 
  64.732670   640.000000     0.001563   590.555159     0.000000 
  64.749670   639.000000     0.001565   566.804020     0.000000 
  64.766670   597.000000     0.001675   544.468964     0.000000 
  64.783670   572.000000     0.001748   523.639942     0.000000 
  64.800670   542.000000     0.001845   504.541537     0.000000 
  64.817670   496.000000     0.002016   487.205062     0.000000 
  64.834670   518.000000     0.001931   471.590501     0.000000 
  64.851670   457.000000     0.002188   457.611607     0.000000 
  64.868670   449.000000     0.002227   445.155612     0.000000 
  64.885670   457.000000     0.002188   434.095930     0.000000 
  64.902670   439.000000     0.002278   424.301606     0.000000 
  64.919670   415.000000     0.002410   415.642620     0.000000 
  64.936670   392.000000     0.002551   407.994114     0.000000 
  64.953670   353.000000     0.002833   401.238342     0.000000 
  64.970670   393.000000     0.002545   395.266542     0.000000 
  64.987670   392.000000     0.002551   389.979379     0.000000 
  65.004670   370.000000     0.002703   385.287630     0.000000 
  65.021670   366.000000     0.002732   381.559067     0.000000 
  65.038670   358.000000     0.002793   377.833213     0.000000 
  65.055670   379.000000     0.002639   374.492857     0.000000 
  65.072670   401.000000     0.002494   371.485670     0.000000 
  65.089670   342.000000     0.002924   368.766778     0.000000 
  65.106670   351.000000     0.002849   366.298086     0.000000 
  65.123670   318.000000     0.003145   364.047261     0.000000 
  65.140670   366.000000     0.002732   361.987058     0.000000 
  65.157670   344.000000     0.002907   360.094422     0.000000 
  65.174670   348.000000     0.002874   358.349928     0.000000 
  65.191670   355.000000     0.002817   356.737063     0.000000 
  65.208670   362.000000     0.002762   355.241818     0.000000 
  65.225670   344.000000     0.002907   353.852163     0.000000 
  65.242670   380.000000     0.002632   352.557773     0.000000 
  65.259670   371.000000     0.002695   351.370988     0.000000 
  65.276670   351.000000     0.002849   350.241446     0.000000 
  65.293670   358.000000     0.002793   349.183459     0.000000 
  65.310670   380.000000     0.002632   348.190954     0.000000 
  65.327670   384.000000     0.002604   347.258500     0.000000 
  65.344670   394.000000     0.002538   346.381271     0.000000 
  65.361670   377.000000     0.002653   345.554914     0.000000 
  65.378670   364.000000     0.002747   344.775528     0.000000 
  65.395670   384.000000     0.002604   344.039569     0.000000 
  65.412680   408.000000     0.002451   343.343449     0.000000 
  65.429680   430.000000     0.002326   342.685065     0.000000 
  65.446680   416.000000     0.002404   342.061365     0.000000 
  65.463680   419.000000     0.002387   341.469923     0.000000 
  65.480680   420.000000     0.002381   340.908548     0.000000 
  65.497680   413.000000     0.002421   340.375212     0.000000 
  65.514680   417.000000     0.002398   339.868079     0.000000 
  65.531680   433.000000     0.002309   339.385443     0.000000 
  65.548680   447.000000     0.002237   338.925756     0.000000 
  65.565680   445.000000     0.002247   338.487574     0.000000 
  65.582680   433.000000     0.002309   338.069585     0.000000 
  65.599680   432.000000     0.002315   337.670562     0.000000 
  65.616680   440.000000     0.002273   337.289387     0.000000 
  65.633680   455.000000     0.002198   336.925011     0.000000 
  65.650680   429.000000     0.002331   336.576477     0.000000 
  65.667680   426.000000     0.002347   336.242885     0.000000 
  65.684680   465.000000     0.002151   335.923413     0.000000 
  65.701680   452.000000     0.002212   335.617285     0.000000 
  65.718680   457.000000     0.002188   335.323791     0.000000 
  65.735680   440.000000     0.002273   335.042260     0.000000 
  65.752680   422.000000     0.002370   334.772076     0.000000 
  65.769680   430.000000     0.002326   334.512657     0.000000 
  65.786680   400.000000     0.002500   334.263469     0.000000 
  65.803680   397.000000     0.002519   334.024002     0.000000 
  65.820680   380.000000     0.002632   333.793791     0.000000 
  65.837680   404.000000     0.002475   333.572392     0.000000 
  65.854680   404.000000     0.002475   333.359396     0.000000 
  65.871680   379.000000     0.002639   333.154416     0.000000 
  65.888680   370.000000     0.002703   332.957091     0.000000 
  65.905680   376.000000     0.002660   332.767082     0.000000 
  65.922680   378.000000     0.002646   332.584072     0.000000 
  65.939680   341.000000     0.002933   332.407761     0.000000 
  65.956680   345.000000     0.002899   332.237871     0.000000 
  65.973680   370.000000     0.002703   332.074137     0.000000 
  65.990680   346.000000     0.002890   331.916313     0.000000 
  66.007680   362.000000     0.002762   331.764164     0.000000 
  66.024680   352.000000     0.002841   331.617474     0.000000 
  66.041680   309.000000     0.003236   331.476035     0.000000 
  66.058680   367.000000     0.002725   331.339654     0.000000 
  66.075680   322.000000     0.003106   331.409009     0.000000 
  66.092680   312.000000     0.003205   331.283274     0.000000 
  66.109680   305.000000     0.003279   331.162088     0.000000 
  66.126680   320.000000     0.003125   331.045300     0.000000 
  66.143680   347.000000     0.002882   330.872634     0.000000 
  66.160680   325.000000     0.003077   330.436441     0.000000 
  66.177680   327.000000     0.003058   330.335818     0.000000 
  66.194680   318.000000     0.003145   330.239012     0.000000 
  66.211680   314.000000     0.003185   330.145912     0.000000 
  66.228680   333.000000     0.003003   330.056412     0.000000 
  66.245680   326.000000     0.003067   329.970413     0.000000 
  66.262680   345.000000     0.002899   329.887823     0.000000 
  66.279680   312.000000     0.003205   329.808555     0.000000 
  66.296680   303.000000     0.003300   329.732528     0.000000 
  66.313690   336.000000     0.002976   329.659623     0.000000 
  66.330690   314.000000     0.003185   329.589854     0.000000 
  66.347690   323.000000     0.003096   329.523111     0.000000 
  66.364690   303.000000     0.003300   329.459332     0.000000 
  66.381690   323.000000     0.003096   329.398459     0.000000 
  66.398690   316.000000     0.003165   329.340437     0.000000 
  66.415690   312.000000     0.003205   329.285218     0.000000 
  66.432690   297.000000     0.003367   329.232754     0.000000 
  66.449690   296.000000     0.003378   329.183004     0.000000 
  66.466690   301.000000     0.003322   329.135930     0.000000 
  66.483690   302.000000     0.003311   329.091495     0.000000 
  66.500690   306.000000     0.003268   329.049668     0.000000 
  66.517690   311.000000     0.003215   329.010421     0.000000 
  66.534690   282.000000     0.003546   328.973726     0.000000 
  66.551690   279.000000     0.003584   328.939564     0.000000 
  66.568690   299.000000     0.003344   328.907913     0.000000 
  66.585690   311.000000     0.003215   328.878758     0.000000 
  66.602690   292.000000     0.003425   328.852085     0.000000 
  66.619690   280.000000     0.003571   328.827884     0.000000 
  66.636690   311.000000     0.003215   328.806145     0.000000 
  66.653690   284.000000     0.003521   328.786866     0.000000 
  66.670690   282.000000     0.003546   328.770043     0.000000 
  66.687690   315.000000     0.003175   328.755677     0.000000 
  66.704690   284.000000     0.003521   328.743771     0.000000 
  66.721690   264.000000     0.003788   328.734331     0.000000 
  66.738690   304.000000     0.003289   328.727366     0.000000 
  66.755690   321.000000     0.003115   328.722888     0.000000 
  66.772690   305.000000     0.003279   328.720909     0.000000 
  66.789690   308.000000     0.003247   328.812139     0.000000 
  66.806690   277.000000     0.003610   328.815926     0.000000 
  66.823690   324.000000     0.003086   328.822285     0.000000 
  66.840690   319.000000     0.003135   328.831235     0.000000 
  66.857690   330.000000     0.003030   328.842811     0.000000 
  66.874690   293.000000     0.003413   328.857039     0.000000 
  66.891690   290.000000     0.003448   328.873959     0.000000 
  66.908690   294.000000     0.003401   328.893604     0.000000 
  66.925690   288.000000     0.003472   328.916019     0.000000 
  66.942690   308.000000     0.003247   328.941244     0.000000 
  66.959690   271.000000     0.003690   328.969332     0.000000 
  66.976690   312.000000     0.003205   329.000329     0.000000 
  66.993690   283.000000     0.003534   329.034295     0.000000 
  67.010690   298.000000     0.003356   329.071283     0.000000 
  67.027690   309.000000     0.003236   329.111361     0.000000 
  67.044690   284.000000     0.003521   329.154589     0.000000 
  67.061690   301.000000     0.003322   329.201044     0.000000 
  67.078690   313.000000     0.003195   329.250794     0.000000 
  67.095690   284.000000     0.003521   329.303926     0.000000 
  67.112690   297.000000     0.003367   329.360516     0.000000 
  67.129690   293.000000     0.003413   329.420660     0.000000 
  67.146690   278.000000     0.003597   329.484446     0.000000 
  67.163690   292.000000     0.003425   329.551979     0.000000 
  67.180690   298.000000     0.003356   329.623356     0.000000 
  67.197700   290.000000     0.003448   329.698743     0.000000 
  67.214700   324.000000     0.003086   329.778159     0.000000 
  67.231700   328.000000     0.003049   329.861778     0.000000 
  67.248700   303.000000     0.003300   329.949722     0.000000 
  67.265700   304.000000     0.003289   330.042138     0.000000 
  67.282700   277.000000     0.003610   330.139161     0.000000 
  67.299700   270.000000     0.003704   330.262270     0.000000 
  67.316700   281.000000     0.003559   330.369146     0.000000 
  67.333700   321.000000     0.003115   330.481124     0.000000 
  67.350700   321.000000     0.003115   330.598373     0.000000 
  67.367700   316.000000     0.003165   330.721093     0.000000 
  67.384700   328.000000     0.003049   330.849471     0.000000 
  67.401700   303.000000     0.003300   330.593870     0.000000 
  67.418700   275.000000     0.003636   330.736936     0.000000 
  67.435700   303.000000     0.003300   330.886313     0.000000 
  67.452700   318.000000     0.003145   331.042235     0.000000 
  67.469700   305.000000     0.003279   331.204981     0.000000 
  67.486700   300.000000     0.003333   331.374811     0.000000 
  67.503700   293.000000     0.003413   331.552036     0.000000 
  67.520700   293.000000     0.003413   331.736950     0.000000 
  67.537700   287.000000     0.003484   331.929899     0.000000 
  67.554700   292.000000     0.003425   332.131212     0.000000 
  67.571700   287.000000     0.003484   332.341277     0.000000 
  67.588700   276.000000     0.003623   332.560464     0.000000 
  67.605700   288.000000     0.003472   332.789211     0.000000 
  67.622700   297.000000     0.003367   333.027933     0.000000 
  67.639700   323.000000     0.003096   333.277121     0.000000 
  67.656700   306.000000     0.003268   333.537247     0.000000 
  67.673700   298.000000     0.003356   333.808863     0.000000 
  67.690700   308.000000     0.003247   334.092504     0.000000 
  67.707700   310.000000     0.003226   334.388794     0.000000 
  67.724700   314.000000     0.003185   334.698340     0.000000 
  67.741700   324.000000     0.003086   335.021850     0.000000 
  67.758700   297.000000     0.003367   335.360014     0.000000 
  67.775700   274.000000     0.003650   335.713640     0.000000 
  67.792700   284.000000     0.003521   336.083513     0.000000 
  67.809700   292.000000     0.003425   336.470555     0.000000 
  67.826700   329.000000     0.003040   336.875668     0.000000 
  67.843700   305.000000     0.003279   337.299903     0.000000 
  67.860700   294.000000     0.003401   337.744300     0.000000 
  67.877700   282.000000     0.003546   338.210066     0.000000 
  67.894700   275.000000     0.003636   338.698399     0.000000 
  67.911700   299.000000     0.003344   339.210691     0.000000 
  67.928700   309.000000     0.003236   339.748329     0.000000 
  67.945700   308.000000     0.003247   340.312925     0.000000 
  67.962700   321.000000     0.003115   340.906092     0.000000 
  67.979700   275.000000     0.003636   341.529702     0.000000 
  67.996700   300.000000     0.003333   342.185636     0.000000 
  68.013700   290.000000     0.003448   342.876084     0.000000 
  68.030700   283.000000     0.003534   343.603251     0.000000 
  68.047700   323.000000     0.003096   344.369705     0.000000 
  68.064700   288.000000     0.003472   345.178048     0.000000 
  68.081700   312.000000     0.003205   346.031308     0.000000 
  68.098710   289.000000     0.003460   346.933117     0.000000 
  68.115710   309.000000     0.003236   347.886011     0.000000 
  68.132710   305.000000     0.003279   348.894201     0.000000 
  68.149710   316.000000     0.003165   349.961987     0.000000 
  68.166710   341.000000     0.002933   351.294550     0.000000 
  68.183710   328.000000     0.003049   352.497164     0.000000 
  68.200710   312.000000     0.003205   353.774512     0.000000 
  68.217710   304.000000     0.003289   355.132989     0.000000 
  68.234710   322.000000     0.003106   356.579379     0.000000 
  68.251710   305.000000     0.003279   358.121694     0.000000 
  68.268710   290.000000     0.003448   359.768557     0.000000 
  68.285710   318.000000     0.003145   361.189906     0.000000 
  68.302710   332.000000     0.003012   363.080815     0.000000 
  68.319710   327.000000     0.003058   365.111283     0.000000 
  68.336710   335.000000     0.002985   367.296376     0.000000 
  68.353710   338.000000     0.002959   369.654363     0.000000 
  68.370710   327.000000     0.003058   372.205874     0.000000 
  68.387710   323.000000     0.003096   374.976045     0.000000 
  68.404710   328.000000     0.003049   377.993513     0.000000 
  68.421710   320.000000     0.003125   381.293158     0.000000 
  68.438710   315.000000     0.003175   384.914793     0.000000 
  68.455710   324.000000     0.003086   388.906618     0.000000 
  68.472710   317.000000     0.003155   393.323346     0.000000 
  68.489710   316.000000     0.003165   398.230462     0.000000 
  68.506710   356.000000     0.002809   403.701371     0.000000 
  68.523710   366.000000     0.002732   409.822511     0.000000 
  68.540710   336.000000     0.002976   416.688964     0.000000 
  68.557710   337.000000     0.002967   424.410452     0.000000 
  68.574710   367.000000     0.002725   433.104722     0.000000 
  68.591710   375.000000     0.002667   442.904448     0.000000 
  68.608710   379.000000     0.002639   453.947705     0.000000 
  68.625710   367.000000     0.002725   466.385801     0.000000 
  68.642710   387.000000     0.002584   480.370222     0.000000 
  68.659710   414.000000     0.002415   496.061350     0.000000 
  68.676710   439.000000     0.002278   513.611306     0.000000 
  68.693710   441.000000     0.002268   533.173129     0.000000 
  68.710710   456.000000     0.002193   554.878657     0.000000 
  68.727710   509.000000     0.001965   578.846620     0.000000 
  68.744710   516.000000     0.001938   605.153753     0.000000 
  68.761710   539.000000     0.001855   634.076121     0.000000 
  68.778710   569.000000     0.001757   665.099247     0.000000 
  68.795710   600.000000     0.001667   698.335284     0.000000 
  68.812710   641.000000     0.001560   733.523337     0.000000 
  68.829710   633.000000     0.001580   770.244418     0.000000 
  68.846710   648.000000     0.001543   807.868898     0.000000 
  68.863710   681.000000     0.001468   845.536478     0.000000 
  68.880710   675.000000     0.001481   882.148409     0.000000 
  68.897710   689.000000     0.001451   916.404536     0.000000 
  68.914710   690.000000     0.001449   946.918866     0.000000 
  68.931710   730.000000     0.001370   972.361323     0.000000 
  68.948710   717.000000     0.001395   991.692521     0.000000 
  68.965710   699.000000     0.001431  1004.305586     0.000000 
  68.982710   736.000000     0.001359  1010.177663     0.000000 
  68.999720   737.000000     0.001357  1009.796126     0.000000 
  69.016720   759.000000     0.001318  1004.070718     0.000000 
  69.033720   769.000000     0.001300   994.071260     0.000000 
  69.050720   742.000000     0.001348   980.838390     0.000000 
  69.067720   708.000000     0.001412   965.183621     0.000000 
  69.084720   729.000000     0.001372   947.620158     0.000000 
  69.101720   709.000000     0.001410   928.343280     0.000000 
  69.118720   721.000000     0.001387   907.318251     0.000000 
  69.135720   734.000000     0.001362   884.392783     0.000000 
  69.152720   698.000000     0.001433   859.452176     0.000000 
  69.169720   704.000000     0.001420   832.523983     0.000000 
  69.186720   646.000000     0.001548   803.853690     0.000000 
  69.203720   629.000000     0.001590   773.884378     0.000000 
  69.220720   653.000000     0.001531   743.203656     0.000000 
  69.237720   645.000000     0.001550   712.810354     0.000000 
  69.254720   591.000000     0.001692   682.579287     0.000000 
  69.271720   577.000000     0.001733   653.381627     0.000000 
  69.288720   552.000000     0.001812   625.601657     0.000000 
  69.305720   533.000000     0.001876   599.504610     0.000000 
  69.322720   495.000000     0.002020   575.240019     0.000000 
  69.339720   490.000000     0.002041   552.874505     0.000000 
  69.356720   513.000000     0.001949   532.400740     0.000000 
  69.373720   527.000000     0.001898   513.769875     0.000000 
  69.390720   477.000000     0.002096   496.894207     0.000000 
  69.407720   466.000000     0.002146   481.671643     0.000000 
  69.424720   459.000000     0.002179   467.982577     0.000000 
  69.441720   429.000000     0.002331   455.707334     0.000000 
  69.458720   429.000000     0.002331   444.720360     0.000000 
  69.475720   429.000000     0.002331   434.902860     0.000000 
  69.492720   409.000000     0.002445   426.136469     0.000000 
  69.509720   412.000000     0.002427   418.312599     0.000000 
  69.526720   412.000000     0.002427   411.326561     0.000000 
  69.543720   388.000000     0.002577   405.084468     0.000000 
  69.560720   394.000000     0.002538   399.498093     0.000000 
  69.577720   381.000000     0.002625   394.489838     0.000000 
  69.594720   360.000000     0.002778   389.988337     0.000000 
  69.611720   333.000000     0.003003   385.590901     0.000000 
  69.628720   332.000000     0.003012   381.926083     0.000000 
  69.645720   354.000000     0.002825   378.603190     0.000000 
  69.662720   359.000000     0.002786   375.579975     0.000000 
  69.679720   367.000000     0.002725   372.820925     0.000000 
  69.696720   350.000000     0.002857   370.294678     0.000000 
  69.713720   349.000000     0.002865   367.975092     0.000000 
  69.730720   354.000000     0.002825   365.839155     0.000000 
  69.747720   329.000000     0.003040   363.867760     0.000000 
  69.764720   324.000000     0.003086   362.044045     0.000000 
  69.781720   339.000000     0.002950   360.354000     0.000000 
  69.798720   322.000000     0.003106   358.785162     0.000000 
  69.815720   362.000000     0.002762   357.327134     0.000000 
  69.832720   347.000000     0.002882   355.970558     0.000000 
  69.849720   343.000000     0.002915   354.707582     0.000000 
  69.866720   309.000000     0.003236   353.531046     0.000000 
  69.883730   306.000000     0.003268   352.434285     0.000000 
  69.900730   310.000000     0.003226   351.413013     0.000000 
  69.917730   324.000000     0.003086   350.461831     0.000000 
  69.934730   348.000000     0.002874   349.576347     0.000000 
  69.951730   335.000000     0.002985   348.752825     0.000000 
  69.968730   302.000000     0.003311   347.987777     0.000000 
  69.985730   348.000000     0.002874   347.278254     0.000000 
  70.002730   357.000000     0.002801   346.621489     0.000000 
  70.019730   331.000000     0.003021   346.015174     0.000000 
  70.036730   338.000000     0.002959   345.903442     0.000000 
  70.053730   344.000000     0.002907   345.394051     0.000000 
  70.070730   345.000000     0.002899   344.929567     0.000000 
  70.087730   296.000000     0.003378   344.508711     0.000000 
  70.104730   323.000000     0.003096   344.130324     0.000000 
  70.121730   377.000000     0.002653   343.793579     0.000000 
  70.138730   364.000000     0.002747   343.497773     0.000000 
  70.155730   337.000000     0.002967   343.242521     0.000000 
  70.172730   325.000000     0.003077   343.027586     0.000000 
  70.189730   363.000000     0.002755   342.853056     0.000000 
  70.206730   347.000000     0.002882   342.719196     0.000000 
  70.223730   363.000000     0.002755   342.626634     0.000000 
  70.240730   309.000000     0.003236   342.576236     0.000000 
  70.257730   331.000000     0.003021   342.569295     0.000000 
  70.274730   359.000000     0.002786   342.607430     0.000000 
  70.291730   340.000000     0.002941   342.692802     0.000000 
  70.308730   321.000000     0.003115   342.828034     0.000000 
  70.325730   342.000000     0.002924   343.016452     0.000000 
  70.342730   341.000000     0.002933   343.262035     0.000000 
  70.359730   324.000000     0.003086   343.569690     0.000000 
  70.376730   327.000000     0.003058   343.945224     0.000000 
  70.393730   347.000000     0.002882   344.395651     0.000000 
  70.410730   366.000000     0.002732   344.929178     0.000000 
  70.427730   367.000000     0.002725   345.555532     0.000000 
  70.444730   364.000000     0.002747   346.285936     0.000000 
  70.461730   349.000000     0.002865   347.133437     0.000000 
  70.478730   369.000000     0.002710   348.112825     0.000000 
  70.495730   397.000000     0.002519   349.240938     0.000000 
  70.512730   391.000000     0.002558   350.536461     0.000000 
  70.529730   405.000000     0.002469   352.020177     0.000000 
  70.546730   400.000000     0.002500   353.714583     0.000000 
  70.563730   399.000000     0.002506   355.644044     0.000000 
  70.580730   394.000000     0.002538   357.834180     0.000000 
  70.597730   377.000000     0.002653   360.311882     0.000000 
  70.614730   375.000000     0.002667   363.104423     0.000000 
  70.631730   378.000000     0.002646   366.239299     0.000000 
  70.648730   390.000000     0.002564   369.743007     0.000000 
  70.665730   403.000000     0.002481   373.640615     0.000000 
  70.682730   436.000000     0.002294   377.954074     0.000000 
  70.699730   395.000000     0.002532   382.701288     0.000000 
  70.716730   379.000000     0.002639   387.893636     0.000000 
  70.733730   423.000000     0.002364   393.534055     0.000000 
  70.750730   417.000000     0.002398   399.613213     0.000000 
  70.767730   384.000000     0.002604   406.105923     0.000000 
  70.784740   406.000000     0.002463   412.969635     0.000000 
  70.801740   376.000000     0.002660   420.122736     0.000000 
  70.818740   396.000000     0.002525   427.462471     0.000000 
  70.835740   379.000000     0.002639   434.844723     0.000000 
  70.852740   414.000000     0.002415   442.086584     0.000000 
  70.869740   429.000000     0.002331   448.971135     0.000000 
  70.886740   423.000000     0.002364   455.261335     0.000000 
  70.903740   404.000000     0.002475   460.722015     0.000000 
  70.920740   433.000000     0.002309   465.150751     0.000000 
  70.937740   417.000000     0.002398   468.406861     0.000000 
  70.954740   377.000000     0.002653   470.435393     0.000000 
  70.971740   409.000000     0.002445   471.272056     0.000000 
  70.988740   423.000000     0.002364   471.032648     0.000000 
  71.005740   430.000000     0.002326   469.884222     0.000000 
  71.022740   442.000000     0.002262   468.071499     0.000000 
  71.039740   427.000000     0.002342   465.823313     0.000000 
  71.056740   400.000000     0.002500   462.973688     0.000000 
  71.073740   394.000000     0.002538   459.782310     0.000000 
  71.090740   371.000000     0.002695   456.515319     0.000000 
  71.107740   399.000000     0.002506   452.713458     0.000000 
  71.124740   388.000000     0.002577   448.594076     0.000000 
  71.141740   373.000000     0.002681   444.152251     0.000000 
  71.158740   382.000000     0.002618   439.407560     0.000000 
  71.175740   377.000000     0.002653   434.413420     0.000000 
  71.192740   374.000000     0.002674   429.255084     0.000000 
  71.209740   369.000000     0.002710   424.041071     0.000000 
  71.226740   383.000000     0.002611   418.888234     0.000000 
  71.243740   383.000000     0.002611   413.909859     0.000000 
  71.260740   386.000000     0.002591   409.203779     0.000000 
  71.277740   397.000000     0.002519   404.848696     0.000000 
  71.294740   385.000000     0.002597   400.900199     0.000000 
  71.311740   399.000000     0.002506   397.394001     0.000000 
  71.328740   431.000000     0.002320   394.345720     0.000000 
  71.345740   442.000000     0.002262   391.755793     0.000000 
  71.362740   427.000000     0.002342   389.609222     0.000000 
  71.379740   429.000000     0.002331   387.879268     0.000000 
  71.396740   402.000000     0.002488   386.526431     0.000000 
  71.413740   404.000000     0.002475   385.500626     0.000000 
  71.430740   412.000000     0.002427   384.741115     0.000000 
  71.447740   427.000000     0.002342   384.178585     0.000000 
  71.464740   435.000000     0.002299   383.739085     0.000000 
  71.481740   421.000000     0.002375   383.523176     0.000000 
  71.498740   416.000000     0.002404   383.113872     0.000000 
  71.515740   411.000000     0.002433   382.630882     0.000000 
  71.532740   405.000000     0.002469   382.404629     0.000000 
  71.549740   413.000000     0.002421   381.695340     0.000000 
  71.566740   428.000000     0.002336   380.872456     0.000000 
  71.583740   450.000000     0.002222   379.956308     0.000000 
  71.600740   441.000000     0.002268   378.976432     0.000000 
  71.617740   408.000000     0.002451   377.960658     0.000000 
  71.634740   408.000000     0.002451   376.932169     0.000000 
  71.651740   414.000000     0.002415   375.904102     0.000000 
  71.668740   431.000000     0.002320   374.880897     0.000000 
  71.685750   418.000000     0.002392   373.858394     0.000000 
  71.702750   410.000000     0.002439   372.831402     0.000000 
  71.719750   419.000000     0.002387   371.793462     0.000000 
  71.736750   404.000000     0.002475   370.744640     0.000000 
  71.753750   409.000000     0.002445   369.692293     0.000000 
  71.770750   431.000000     0.002320   368.652664     0.000000 
  71.787750   410.000000     0.002439   367.648567     0.000000 
  71.804750   421.000000     0.002375   366.707176     0.000000 
  71.821750   399.000000     0.002506   365.857084     0.000000 
  71.838750   408.000000     0.002451   365.125394     0.000000 
  71.855750   377.000000     0.002653   364.537271     0.000000 
  71.872750   429.000000     0.002331   364.113983     0.000000 
  71.889750   398.000000     0.002513   363.875022     0.000000 
  71.906750   389.000000     0.002571   363.836668     0.000000 
  71.923750   419.000000     0.002387   364.015374     0.000000 
  71.940750   420.000000     0.002381   364.426125     0.000000 
  71.957750   442.000000     0.002262   365.086193     0.000000 
  71.974750   389.000000     0.002571   366.012987     0.000000 
  71.991750   398.000000     0.002513   367.227867     0.000000 
  72.008750   421.000000     0.002375   368.753433     0.000000 
  72.025750   470.000000     0.002128   370.617397     0.000000 
  72.042750   421.000000     0.002375   372.849242     0.000000 
  72.059750   443.000000     0.002257   375.484233     0.000000 
  72.076750   443.000000     0.002257   378.559312     0.000000 
  72.093750   471.000000     0.002123   382.117344     0.000000 
  72.110750   463.000000     0.002160   386.202058     0.000000 
  72.127750   446.000000     0.002242   390.862618     0.000000 
  72.144750   420.000000     0.002381   396.147430     0.000000 
  72.161750   456.000000     0.002193   402.109096     0.000000 
  72.178750   436.000000     0.002294   408.796936     0.000000 
  72.195750   434.000000     0.002304   416.262293     0.000000 
  72.212750   454.000000     0.002203   424.549608     0.000000 
  72.229750   463.000000     0.002160   433.701838     0.000000 
  72.246750   474.000000     0.002110   443.749810     0.000000 
  72.263750   482.000000     0.002075   454.717050     0.000000 
  72.280750   468.000000     0.002137   466.606952     0.000000 
  72.297750   487.000000     0.002053   479.405684     0.000000 
  72.314750   494.000000     0.002024   493.066654     0.000000 
  72.331750   490.000000     0.002041   507.509852     0.000000 
  72.348750   511.000000     0.001957   522.604274     0.000000 
  72.365750   573.000000     0.001745   538.163571     0.000000 
  72.382750   604.000000     0.001656   554.378232     0.000000 
  72.399750   603.000000     0.001658   570.029950     0.000000 
  72.416750   628.000000     0.001592   585.164965     0.000000 
  72.433750   649.000000     0.001541   599.329483     0.000000 
  72.450750   651.000000     0.001536   612.052445     0.000000 
  72.467750   700.000000     0.001429   622.881193     0.000000 
  72.484750   725.000000     0.001379   631.452479     0.000000 
  72.501750   759.000000     0.001318   637.525160     0.000000 
  72.518750   743.000000     0.001346   641.034696     0.000000 
  72.535750   724.000000     0.001381   642.073699     0.000000 
  72.552750   692.000000     0.001445   640.885704     0.000000 
  72.569760   666.000000     0.001502   637.788881     0.000000 
  72.586760   641.000000     0.001560   633.140597     0.000000 
  72.603760   672.000000     0.001488   627.253119     0.000000 
  72.620760   660.000000     0.001515   620.373222     0.000000 
  72.637760   665.000000     0.001504   612.716632     0.000000 
  72.654760   625.000000     0.001600   604.223728     0.000000 
  72.671760   664.000000     0.001506   594.961516     0.000000 
  72.688760   614.000000     0.001629   584.909054     0.000000 
  72.705760   589.000000     0.001698   574.052412     0.000000 
  72.722760   560.000000     0.001786   562.424112     0.000000 
  72.739760   531.000000     0.001883   550.113250     0.000000 
  72.756760   545.000000     0.001835   537.272538     0.000000 
  72.773760   524.000000     0.001908   524.097930     0.000000 
  72.790760   500.000000     0.002000   510.809215     0.000000 
  72.807760   473.000000     0.002114   497.623577     0.000000 
  72.824760   445.000000     0.002247   484.735869     0.000000 
  72.841760   415.000000     0.002410   472.308354     0.000000 
  72.858760   450.000000     0.002222   460.462259     0.000000 
  72.875760   425.000000     0.002353   449.283640     0.000000 
  72.892760   363.000000     0.002755   438.821759     0.000000 
  72.909760   422.000000     0.002370   429.101592     0.000000 
  72.926760   405.000000     0.002469   420.122899     0.000000 
  72.943760   410.000000     0.002439   411.872842     0.000000 
  72.960760   383.000000     0.002611   404.323511     0.000000 
  72.977760   360.000000     0.002778   397.442457     0.000000 
  72.994760   372.000000     0.002688   391.188932     0.000000 
  73.011760   336.000000     0.002976   385.522246     0.000000 
  73.028760   329.000000     0.003040   380.397529     0.000000 
  73.045760   357.000000     0.002801   375.772346     0.000000 
  73.062760   353.000000     0.002833   371.602587     0.000000 
  73.079760   374.000000     0.002674   367.847718     0.000000 
  73.096760   361.000000     0.002770   364.499677     0.000000 
  73.113760   356.000000     0.002809   361.456835     0.000000 
  73.130760   348.000000     0.002874   358.715897     0.000000 
  73.147760   345.000000     0.002899   356.245213     0.000000 
  73.164760   360.000000     0.002778   354.014554     0.000000 
  73.181760   331.000000     0.003021   351.997560     0.000000 
  73.198760   349.000000     0.002865   350.169515     0.000000 
  73.215760   364.000000     0.002747   348.509173     0.000000 
  73.232760   359.000000     0.002786   346.996919     0.000000 
  73.249760   375.000000     0.002667   345.616104     0.000000 
  73.266760   373.000000     0.002681   344.351538     0.000000 
  73.283760   356.000000     0.002809   343.190466     0.000000 
  73.300760   340.000000     0.002941   341.677894     0.000000 
  73.317760   344.000000     0.002907   340.694697     0.000000 
  73.334760   341.000000     0.002933   339.785098     0.000000 
  73.351760   348.000000     0.002874   338.941897     0.000000 
  73.368760   358.000000     0.002793   338.158581     0.000000 
  73.385760   338.000000     0.002959   337.429760     0.000000 
  73.402760   349.000000     0.002865   336.750521     0.000000 
  73.419760   354.000000     0.002825   336.116789     0.000000 
  73.436760   364.000000     0.002747   335.524813     0.000000 
  73.453760   364.000000     0.002747   334.971467     0.000000 
  73.470770   367.000000     0.002725   334.453539     0.000000 
  73.487770   364.000000     0.002747   333.969195     0.000000 
  73.504770   352.000000     0.002841   333.746617     0.000000 
  73.521770   337.000000     0.002967   333.323734     0.000000 
  73.538770   343.000000     0.002915   332.928008     0.000000 
  73.555770   353.000000     0.002833   332.557861     0.000000 
  73.572770   337.000000     0.002967   332.211763     0.000000 
  73.589770   323.000000     0.003096   331.888415     0.000000 
  73.606770   342.000000     0.002924   331.586548     0.000000 
  73.623770   335.000000     0.002985   331.305083     0.000000 
  73.640770   318.000000     0.003145   331.042959     0.000000 
  73.657770   328.000000     0.003049   330.799271     0.000000 
  73.674770   330.000000     0.003030   330.573128     0.000000 
  73.691770   333.000000     0.003003   330.363769     0.000000 
  73.708770   308.000000     0.003247   330.170444     0.000000 
  73.725770   341.000000     0.002933   329.992512     0.000000 
  73.742770   327.000000     0.003058   329.829340     0.000000 
  73.759770   359.000000     0.002786   329.680390     0.000000 
  73.776770   343.000000     0.002915   329.545129     0.000000 
  73.793770   346.000000     0.002890   329.423106     0.000000 
  73.810770   331.000000     0.003021   329.313875     0.000000 
  73.827770   321.000000     0.003115   329.217061     0.000000 
  73.844770   375.000000     0.002667   329.132292     0.000000 
  73.861770   324.000000     0.003086   329.059258     0.000000 
  73.878770   324.000000     0.003086   328.997656     0.000000 
  73.895770   337.000000     0.002967   328.947232     0.000000 
  73.912770   335.000000     0.002985   329.082550     0.000000 
  73.929770   339.000000     0.002950   329.054911     0.000000 
  73.946770   293.000000     0.003413   329.037825     0.000000 
  73.963770   328.000000     0.003049   329.031136     0.000000 
  73.980770   297.000000     0.003367   329.034703     0.000000 
  73.997770   335.000000     0.002985   329.048413     0.000000 
  74.014770   315.000000     0.003175   329.072168     0.000000 
  74.031770   306.000000     0.003268   329.105896     0.000000 
  74.048770   332.000000     0.003012   329.149541     0.000000 
  74.065770   287.000000     0.003484   329.203068     0.000000 
  74.082770   304.000000     0.003289   329.266461     0.000000 
  74.099770   307.000000     0.003257   329.339720     0.000000 
  74.116770   321.000000     0.003115   329.422870     0.000000 
  74.133770   351.000000     0.002849   329.515943     0.000000 
  74.150770   320.000000     0.003125   329.619003     0.000000 
  74.167770   345.000000     0.002899   329.732117     0.000000 
  74.184770   325.000000     0.003077   329.855387     0.000000 
  74.201770   312.000000     0.003205   329.988915     0.000000 
  74.218770   341.000000     0.002933   330.132839     0.000000 
  74.235770   333.000000     0.003003   330.287299     0.000000 
  74.252770   319.000000     0.003135   330.452474     0.000000 
  74.269770   309.000000     0.003236   330.628537     0.000000 
  74.286770   308.000000     0.003247   330.815711     0.000000 
  74.303770   314.000000     0.003185   331.014210     0.000000 
  74.320770   309.000000     0.003236   331.224298     0.000000 
  74.337770   310.000000     0.003226   331.446231     0.000000 
  74.354780   336.000000     0.002976   331.680464     0.000000 
  74.371780   342.000000     0.002924   331.927021     0.000000 
  74.388780   324.000000     0.003086   332.186402     0.000000 
  74.405780   316.000000     0.003165   332.458955     0.000000 
  74.422780   304.000000     0.003289   332.745104     0.000000 
  74.439780   304.000000     0.003289   333.045251     0.000000 
  74.456780   312.000000     0.003205   333.359882     0.000000 
  74.473780   312.000000     0.003205   333.689460     0.000000 
  74.490780   307.000000     0.003257   334.034542     0.000000 
  74.507780   299.000000     0.003344   334.395659     0.000000 
  74.524780   322.000000     0.003106   334.773447     0.000000 
  74.541780   324.000000     0.003086   335.168515     0.000000 
  74.558780   318.000000     0.003145   335.581588     0.000000 
  74.575780   319.000000     0.003135   336.013362     0.000000 
  74.592780   318.000000     0.003145   336.464665     0.000000 
  74.609780   311.000000     0.003215   336.936296     0.000000 
  74.626780   298.000000     0.003356   337.429199     0.000000 
  74.643780   332.000000     0.003012   337.944291     0.000000 
  74.660780   311.000000     0.003215   338.482653     0.000000 
  74.677780   333.000000     0.003003   339.045337     0.000000 
  74.694780   329.000000     0.003040   339.633583     0.000000 
  74.711780   324.000000     0.003086   340.248607     0.000000 
  74.728780   328.000000     0.003049   340.891835     0.000000 
  74.745780   342.000000     0.002924   341.564674     0.000000 
  74.762780   332.000000     0.003012   342.268779     0.000000 
  74.779780   324.000000     0.003086   343.005787     0.000000 
  74.796780   365.000000     0.002740   343.777629     0.000000 
  74.813780   340.000000     0.002941   344.140908     0.000000 
  74.830780   358.000000     0.002793   344.991113     0.000000 
  74.847780   345.000000     0.002899   345.882621     0.000000 
  74.864780   348.000000     0.002874   346.818141     0.000000 
  74.881780   292.000000     0.003425   347.800444     0.000000 
  74.898780   355.000000     0.002817   348.832813     0.000000 
  74.915780   347.000000     0.002882   349.918651     0.000000 
  74.932780   344.000000     0.002907   351.062015     0.000000 
  74.949780   348.000000     0.002874   352.267171     0.000000 
  74.966780   325.000000     0.003077   353.539224     0.000000 
  74.983780   319.000000     0.003135   354.883633     0.000000 
  75.000780   309.000000     0.003236   356.306943     0.000000 
  75.017780   319.000000     0.003135   357.816250     0.000000 
  75.034780   337.000000     0.002967   359.420075     0.000000 
  75.051780   335.000000     0.002985   361.127746     0.000000 
  75.068780   351.000000     0.002849   362.950449     0.000000 
  75.085780   351.000000     0.002849   364.900499     0.000000 
  75.102780   334.000000     0.002994   366.992591     0.000000 
  75.119780   349.000000     0.002865   369.242912     0.000000 
  75.136780   358.000000     0.002793   371.670640     0.000000 
  75.153780   368.000000     0.002717   374.296798     0.000000 
  75.170780   349.000000     0.002865   377.210829     0.000000 
  75.187780   346.000000     0.002890   380.310326     0.000000 
  75.204780   341.000000     0.002933   383.690685     0.000000 
  75.221780   358.000000     0.002793   387.385139     0.000000 
  75.238780   365.000000     0.002740   391.431587     0.000000 
  75.255790   338.000000     0.002959   395.872695     0.000000 
  75.272790   362.000000     0.002762   400.748076     0.000000 
  75.289790   389.000000     0.002571   406.152011     0.000000 
  75.306790   397.000000     0.002519   412.044330     0.000000 
  75.323790   398.000000     0.002513   418.521534     0.000000 
  75.340790   401.000000     0.002494   425.638776     0.000000 
  75.357790   410.000000     0.002439   433.449570     0.000000 
  75.374790   436.000000     0.002294   442.010298     0.000000 
  75.391790   447.000000     0.002237   451.373250     0.000000 
  75.408790   415.000000     0.002410   461.591636     0.000000 
  75.425790   424.000000     0.002358   472.711303     0.000000 
  75.442790   461.000000     0.002169   484.776050     0.000000 
  75.459790   459.000000     0.002179   497.817828     0.000000 
  75.476790   478.000000     0.002092   511.861863     0.000000 
  75.493790   486.000000     0.002058   526.915022     0.000000 
  75.510790   500.000000     0.002000   542.879961     0.000000 
  75.527790   515.000000     0.001942   559.901608     0.000000 
  75.544790   584.000000     0.001712   577.827587     0.000000 
  75.561790   632.000000     0.001582   596.554341     0.000000 
  75.578790   649.000000     0.001541   615.936049     0.000000 
  75.595790   632.000000     0.001582   635.770247     0.000000 
  75.612790   654.000000     0.001529   655.797899     0.000000 
  75.629790   693.000000     0.001443   675.698391     0.000000 
  75.646790   759.000000     0.001318   695.098146     0.000000 
  75.663790   835.000000     0.001198   713.620394     0.000000 
  75.680790   873.000000     0.001145   730.780180     0.000000 
  75.697790   861.000000     0.001161   746.224305     0.000000 
  75.714790   899.000000     0.001112   759.637012     0.000000 
  75.731790   883.000000     0.001133   770.823123     0.000000 
  75.748790   940.000000     0.001064   779.724090     0.000000 
  75.765790   869.000000     0.001151   786.435953     0.000000 
  75.782790   931.000000     0.001074   791.181626     0.000000 
  75.799790   903.000000     0.001107   794.283025     0.000000 
  75.816790   976.000000     0.001025   796.107712     0.000000 
  75.833790   868.000000     0.001152   797.023817     0.000000 
  75.850790   823.000000     0.001215   797.362248     0.000000 
  75.867790   887.000000     0.001127   797.387857     0.000000 
  75.884790   849.000000     0.001178   797.299731     0.000000 
  75.901790   817.000000     0.001224   797.228488     0.000000 
  75.918790   832.000000     0.001202   797.269687     0.000000 
  75.935790   808.000000     0.001238   797.495466     0.000000 
  75.952790   813.000000     0.001230   797.999184     0.000000 
  75.969790   787.000000     0.001271   798.897391     0.000000 
  75.986790   770.000000     0.001299   800.361335     0.000000 
  76.003790   778.000000     0.001285   802.590736     0.000000 
  76.020790   730.000000     0.001370   805.825697     0.000000 
  76.037790   733.000000     0.001364   810.296712     0.000000 
  76.054790   727.000000     0.001376   816.231490     0.000000 
  76.071790   712.000000     0.001404   823.799389     0.000000 
  76.088790   727.000000     0.001376   833.126572     0.000000 
  76.105790   744.000000     0.001344   844.246072     0.000000 
  76.122790   702.000000     0.001425   857.119995     0.000000 
  76.139790   742.000000     0.001348   871.597955     0.000000 
  76.156800   812.000000     0.001232   887.447515     0.000000 
  76.173800   826.000000     0.001211   904.267927     0.000000 
  76.190800   804.000000     0.001244   921.646691     0.000000 
  76.207800   805.000000     0.001242   939.000567     0.000000 
  76.224800   862.000000     0.001160   955.685125     0.000000 
  76.241800   905.000000     0.001105   971.031811     0.000000 
  76.258800   902.000000     0.001109   984.365704     0.000000 
  76.275800   944.000000     0.001059   995.118004     0.000000 
  76.292800   953.000000     0.001049  1002.824341     0.000000 
  76.309800   945.000000     0.001058  1007.247425     0.000000 
  76.326800   942.000000     0.001062  1008.316486     0.000000 
  76.343800   932.000000     0.001073  1006.201581     0.000000 
  76.360800   953.000000     0.001049  1001.187973     0.000000 
  76.377800   912.000000     0.001096   993.692359     0.000000 
  76.394800   900.000000     0.001111   984.123612     0.000000 
  76.411800   936.000000     0.001068   972.882383     0.000000 
  76.428800   912.000000     0.001096   960.266129     0.000000 
  76.445800   896.000000     0.001116   946.491530     0.000000 
  76.462800   863.000000     0.001159   931.660550     0.000000 
  76.479800   789.000000     0.001267   915.815664     0.000000 
  76.496800   790.000000     0.001266   898.946143     0.000000 
  76.513800   804.000000     0.001244   881.059222     0.000000 
  76.530800   764.000000     0.001309   862.189292     0.000000 
  76.547800   744.000000     0.001344   842.452026     0.000000 
  76.564800   680.000000     0.001471   822.027733     0.000000 
  76.581800   684.000000     0.001462   801.176409     0.000000 
  76.598800   650.000000     0.001538   780.199727     0.000000 
  76.615800   669.000000     0.001495   759.425855     0.000000 
  76.632800   618.000000     0.001618   739.178995     0.000000 
  76.649800   603.000000     0.001658   719.755905     0.000000 
  76.666800   624.000000     0.001603   701.422414     0.000000 
  76.683800   559.000000     0.001789   684.392050     0.000000 
  76.700800   574.000000     0.001742   668.847214     0.000000 
  76.717800   491.000000     0.002037   654.918518     0.000000 
  76.734800   502.000000     0.001992   642.718947     0.000000 
  76.751800   467.000000     0.002141   632.320688     0.000000 
  76.768800   425.000000     0.002353   623.792815     0.000000 
  76.785800   488.000000     0.002049   617.174916     0.000000 
  76.802800   493.000000     0.002028   612.513567     0.000000 
  76.819800   507.000000     0.001972   609.833814     0.000000 
  76.836800   517.000000     0.001934   609.172786     0.000000 
  76.853800   486.000000     0.002058   610.550407     0.000000 
  76.870800   493.000000     0.002028   613.999852     0.000000 
  76.887800   505.000000     0.001980   619.538438     0.000000 
  76.904800   452.000000     0.002212   627.195024     0.000000 
  76.921800   480.000000     0.002083   636.981539     0.000000 
  76.938800   508.000000     0.001969   648.917352     0.000000 
  76.955800   481.000000     0.002079   663.001445     0.000000 
  76.972800   503.000000     0.001988   679.233485     0.000000 
  76.989800   541.000000     0.001848   697.586225     0.000000 
  77.006800   564.000000     0.001773   718.022569     0.000000 
  77.023800   555.000000     0.001802   740.467472     0.000000 
  77.040810   566.000000     0.001767   764.834680     0.000000 
  77.057810   624.000000     0.001603   790.939355     0.000000 
  77.074810   663.000000     0.001508   818.589565     0.000000 
  77.091810   655.000000     0.001527   847.502175     0.000000 
  77.108810   675.000000     0.001481   877.317034     0.000000 
  77.125810   708.000000     0.001412   907.486610     0.000000 
  77.142810   804.000000     0.001244   937.638758     0.000000 
  77.159810   850.000000     0.001176   967.037797     0.000000 
  77.176810   878.000000     0.001139   994.964899     0.000000 
  77.193810   877.000000     0.001140  1020.668010     0.000000 
  77.210810   870.000000     0.001149  1043.406616     0.000000 
  77.227810   869.000000     0.001151  1062.529611     0.000000 
  77.244810   948.000000     0.001055  1077.524434     0.000000 
  77.261810   979.000000     0.001021  1087.892895     0.000000 
  77.278810   911.000000     0.001098  1093.955103     0.000000 
  77.295810   927.000000     0.001079  1095.668905     0.000000 
  77.312810   949.000000     0.001054  1093.367656     0.000000 
  77.329810   924.000000     0.001082  1087.519642     0.000000 
  77.346810   944.000000     0.001059  1078.631129     0.000000 
  77.363810   940.000000     0.001064  1067.195099     0.000000 
  77.380810   889.000000     0.001125  1053.619972     0.000000 
  77.397810   866.000000     0.001155  1038.212424     0.000000 
  77.414810   835.000000     0.001198  1021.159467     0.000000 
  77.431810   828.000000     0.001208  1002.556067     0.000000 
  77.448810   810.000000     0.001235   982.430226     0.000000 
  77.465810   824.000000     0.001214   960.796107     0.000000 
  77.482810   792.000000     0.001263   937.688920     0.000000 
  77.499810   761.000000     0.001314   913.208169     0.000000 
  77.516810   744.000000     0.001344   887.527631     0.000000 
  77.533810   690.000000     0.001449   860.902825     0.000000 
  77.550810   670.000000     0.001493   833.648252     0.000000 
  77.567810   659.000000     0.001517   806.115597     0.000000 
  77.584810   660.000000     0.001515   778.661247     0.000000 
  77.601810   593.000000     0.001686   751.620715     0.000000 
  77.618810   548.000000     0.001825   725.290599     0.000000 
  77.635810   536.000000     0.001866   699.914363     0.000000 
  77.652810   496.000000     0.002016   675.683564     0.000000 
  77.669810   481.000000     0.002079   652.733686     0.000000 
  77.686810   470.000000     0.002128   631.156827     0.000000 
  77.703810   476.000000     0.002101   611.000945     0.000000 
  77.720810   426.000000     0.002347   592.285771     0.000000 
  77.737810   413.000000     0.002421   575.001299     0.000000 
  77.754810   409.000000     0.002445   559.122633     0.000000 
  77.771810   377.000000     0.002653   544.606757     0.000000 
  77.788810   401.000000     0.002494   531.405061     0.000000 
  77.805810   376.000000     0.002660   519.437761     0.000000 
  77.822810   419.000000     0.002387   508.688860     0.000000 
  77.839810   384.000000     0.002604   499.074105     0.000000 
  77.856810   372.000000     0.002688   490.534275     0.000000 
  77.873810   386.000000     0.002591   483.009271     0.000000 
  77.890810   377.000000     0.002653   476.444904     0.000000 
  77.907810   375.000000     0.002667   470.788742     0.000000 
  77.924810   373.000000     0.002681   465.995517     0.000000 
  77.941820   351.000000     0.002849   462.021509     0.000000 
  77.958820   379.000000     0.002639   458.837504     0.000000 
  77.975820   375.000000     0.002667   456.412019     0.000000 
  77.992820   380.000000     0.002632   454.769518     0.000000 
  78.009820   398.000000     0.002513   453.803639     0.000000 
  78.026820   400.000000     0.002500   453.551626     0.000000 
  78.043820   414.000000     0.002415   454.011093     0.000000 
  78.060820   408.000000     0.002451   455.186213     0.000000 
  78.077820   381.000000     0.002625   457.086358     0.000000 
  78.094820   346.000000     0.002890   459.726128     0.000000 
  78.111820   372.000000     0.002688   463.124332     0.000000 
  78.128820   389.000000     0.002571   467.303247     0.000000 
  78.145820   414.000000     0.002415   472.287894     0.000000 
  78.162820   419.000000     0.002387   478.104594     0.000000 
  78.179820   441.000000     0.002268   484.780482     0.000000 
  78.196820   433.000000     0.002309   492.341374     0.000000 
  78.213820   405.000000     0.002469   500.811402     0.000000 
  78.230820   405.000000     0.002469   510.210121     0.000000 
  78.247820   424.000000     0.002358   520.552042     0.000000 
  78.264820   448.000000     0.002232   531.842751     0.000000 
  78.281820   500.000000     0.002000   544.077962     0.000000 
  78.298820   505.000000     0.001980   557.238308     0.000000 
  78.315820   504.000000     0.001984   571.287437     0.000000 
  78.332820   581.000000     0.001721   586.165237     0.000000 
  78.349820   608.000000     0.001645   601.784808     0.000000 
  78.366820   607.000000     0.001647   618.024680     0.000000 
  78.383820   601.000000     0.001664   634.725839     0.000000 
  78.400820   631.000000     0.001585   651.685593     0.000000 
  78.417820   652.000000     0.001534   668.658513     0.000000 
  78.434820   692.000000     0.001445   685.357737     0.000000 
  78.451820   708.000000     0.001412   701.466250     0.000000 
  78.468820   690.000000     0.001449   716.652084     0.000000 
  78.485820   703.000000     0.001422   730.593553     0.000000 
  78.502820   745.000000     0.001342   743.006911     0.000000 
  78.519820   789.000000     0.001267   753.676743     0.000000 
  78.536820   760.000000     0.001316   762.479394     0.000000 
  78.553820   749.000000     0.001335   769.397505     0.000000 
  78.570820   751.000000     0.001332   774.518001     0.000000 
  78.587820   725.000000     0.001379   778.018108     0.000000 
  78.604820   811.000000     0.001233   780.135896     0.000000 
  78.621820   812.000000     0.001232   781.140128     0.000000 
  78.638820   818.000000     0.001222   781.293634     0.000000 
  78.655820   802.000000     0.001247   780.831148     0.000000 
  78.672820   806.000000     0.001241   779.936159     0.000000 
  78.689820   789.000000     0.001267   778.740509     0.000000 
  78.706820   811.000000     0.001233   777.320809     0.000000 
  78.723820   801.000000     0.001248   775.717698     0.000000 
  78.740820   838.000000     0.001193   773.944614     0.000000 
  78.757820   799.000000     0.001252   772.013656     0.000000 
  78.774820   822.000000     0.001217   769.942148     0.000000 
  78.791820   804.000000     0.001244   767.768866     0.000000 
  78.808820   877.000000     0.001140   765.546432     0.000000 
  78.825820   826.000000     0.001211   763.340313     0.000000 
  78.842830   820.000000     0.001220   761.207506     0.000000 
  78.859830   807.000000     0.001239   759.190043     0.000000 
  78.876830   798.000000     0.001253   757.288830     0.000000 
  78.893830   794.000000     0.001259   755.459187     0.000000 
  78.910830   773.000000     0.001294   753.606888     0.000000 
  78.927830   800.000000     0.001250   751.587868     0.000000 
  78.944830   770.000000     0.001299   749.029119     0.000000 
  78.961830   779.000000     0.001284   746.134457     0.000000 
  78.978830   733.000000     0.001364   742.524929     0.000000 
  78.995830   779.000000     0.001284   738.487339     0.000000 
  79.012830   723.000000     0.001383   733.045711     0.000000 
  79.029830   712.000000     0.001404   726.602054     0.000000 
  79.046830   752.000000     0.001330   719.195370     0.000000 
  79.063830   763.000000     0.001311   710.908987     0.000000 
  79.080830   753.000000     0.001328   701.875919     0.000000 
  79.097830   738.000000     0.001355   692.235445     0.000000 
  79.114830   723.000000     0.001383   682.130430     0.000000 
  79.131830   693.000000     0.001443   671.673259     0.000000 
  79.148830   686.000000     0.001458   660.949118     0.000000 
  79.165830   632.000000     0.001582   650.000503     0.000000 
  79.182830   611.000000     0.001637   638.841911     0.000000 
  79.199830   652.000000     0.001534   627.459958     0.000000 
  79.216830   649.000000     0.001541   615.835998     0.000000 
  79.233830   632.000000     0.001582   603.951694     0.000000 
  79.250830   599.000000     0.001669   591.810039     0.000000 
  79.267830   558.000000     0.001792   579.435358     0.000000 
  79.284830   579.000000     0.001727   566.883547     0.000000 
  79.301830   578.000000     0.001730   554.232653     0.000000 
  79.318830   554.000000     0.001805   541.581173     0.000000 
  79.335830   563.000000     0.001776   529.035234     0.000000 
  79.352830   513.000000     0.001949   516.701255     0.000000 
  79.369830   480.000000     0.002083   504.678141     0.000000 
  79.386830   450.000000     0.002222   493.050198     0.000000 
  79.403830   453.000000     0.002208   481.887485     0.000000 
  79.420830   476.000000     0.002101   471.240407     0.000000 
  79.437830   465.000000     0.002151   461.146219     0.000000 
  79.454830   450.000000     0.002222   451.624212     0.000000 
  79.471830   429.000000     0.002331   442.685041     0.000000 
  79.488830   433.000000     0.002309   434.325507     0.000000 
  79.505830   442.000000     0.002262   426.538375     0.000000 
  79.522830   428.000000     0.002336   419.306547     0.000000 
  79.539830   403.000000     0.002481   412.612291     0.000000 
  79.556830   402.000000     0.002488   406.431082     0.000000 
  79.573830   373.000000     0.002681   400.739886     0.000000 
  79.590830   358.000000     0.002793   395.511072     0.000000 
  79.607830   377.000000     0.002653   390.719693     0.000000 
  79.624830   357.000000     0.002801   386.337762     0.000000 
  79.641830   363.000000     0.002755   382.340604     0.000000 
  79.658830   336.000000     0.002976   378.701641     0.000000 
  79.675830   351.000000     0.002849   375.397907     0.000000 
  79.692830   326.000000     0.003067   372.405386     0.000000 
  79.709830   335.000000     0.002985   369.703791     0.000000 
  79.726840   353.000000     0.002833   367.271072     0.000000 
  79.743840   325.000000     0.003077   365.093097     0.000000 
  79.760840   350.000000     0.002857   363.151453     0.000000 
  79.777840   345.000000     0.002899   361.432858     0.000000 
  79.794840   341.000000     0.002933   359.924388     0.000000 
  79.811840   381.000000     0.002625   358.616642     0.000000 
  79.828840   328.000000     0.003049   357.500678     0.000000 
  79.845840   303.000000     0.003300   356.570952     0.000000 
  79.862840   323.000000     0.003096   355.822326     0.000000 
  79.879840   328.000000     0.003049   355.252909     0.000000 
  79.896840   325.000000     0.003077   354.861025     0.000000 
  79.913840   344.000000     0.002907   354.648073     0.000000 
  79.930840   329.000000     0.003040   354.615348     0.000000 
  79.947840   360.000000     0.002778   354.767028     0.000000 
  79.964840   350.000000     0.002857   355.106746     0.000000 
  79.981840   356.000000     0.002809   355.640803     0.000000 
  79.998840   355.000000     0.002817   356.374407     0.000000 
  80.015840   344.000000     0.002907   357.315179     0.000000 
  80.032840   351.000000     0.002849   358.469007     0.000000 
  80.049840   332.000000     0.003012   359.843875     0.000000 
  80.066840   345.000000     0.002899   361.445309     0.000000 
  80.083840   335.000000     0.002985   363.280502     0.000000 
  80.100840   309.000000     0.003236   365.353360     0.000000 
  80.117840   308.000000     0.003247   367.783854     0.000000 
  80.134840   345.000000     0.002899   370.343035     0.000000 
  80.151840   363.000000     0.002755   373.146282     0.000000 
  80.168840   366.000000     0.002732   376.188838     0.000000 
  80.185840   361.000000     0.002770   379.464539     0.000000 
  80.202840   358.000000     0.002793   382.960071     0.000000 
  80.219840   362.000000     0.002762   386.658482     0.000000 
  80.236840   354.000000     0.002825   390.533720     0.000000 
  80.253840   369.000000     0.002710   394.553183     0.000000 
  80.270840   397.000000     0.002519   398.673447     0.000000 
  80.287840   407.000000     0.002457   402.841750     0.000000 
  80.304840   391.000000     0.002558   406.994565     0.000000 
  80.321840   411.000000     0.002433   411.058355     0.000000 
  80.338840   450.000000     0.002222   414.953233     0.000000 
  80.355840   467.000000     0.002141   418.593454     0.000000 
  80.372840   462.000000     0.002165   421.897624     0.000000 
  80.389840   437.000000     0.002288   424.788295     0.000000 
  80.406840   452.000000     0.002212   427.207099     0.000000 
  80.423840   461.000000     0.002169   429.110684     0.000000 
  80.440840   471.000000     0.002123   430.485519     0.000000 
  80.457840   466.000000     0.002146   431.337205     0.000000 
  80.474840   482.000000     0.002075   431.699843     0.000000 
  80.491840   480.000000     0.002083   431.619625     0.000000 
  80.508840   443.000000     0.002257   431.158381     0.000000 
  80.525840   437.000000     0.002288   430.376779     0.000000 
  80.542840   458.000000     0.002183   429.335737     0.000000 
  80.559840   479.000000     0.002088   428.084585     0.000000 
  80.576840   435.000000     0.002299   426.663961     0.000000 
  80.593840   464.000000     0.002155   425.100642     0.000000 
  80.610840   433.000000     0.002309   423.413212     0.000000 
  80.627850   437.000000     0.002288   421.610723     0.000000 
  80.644850   462.000000     0.002165   419.704284     0.000000 
  80.661850   427.000000     0.002342   417.701878     0.000000 
  80.678850   429.000000     0.002331   415.618637     0.000000 
  80.695850   457.000000     0.002188   413.475234     0.000000 
  80.712850   483.000000     0.002070   411.300139     0.000000 
  80.729850   454.000000     0.002203   409.126624     0.000000 
  80.746850   431.000000     0.002320   406.990911     0.000000 
  80.763850   417.000000     0.002398   404.928766     0.000000 
  80.780850   415.000000     0.002410   402.971407     0.000000 
  80.797850   404.000000     0.002475   401.144066     0.000000 
  80.814850   382.000000     0.002618   399.461607     0.000000 
  80.831850   369.000000     0.002710   397.929797     0.000000 
  80.848850   391.000000     0.002558   396.541775     0.000000 
  80.865850   408.000000     0.002451   395.281398     0.000000 
  80.882850   396.000000     0.002525   393.883889     0.000000 
  80.899850   401.000000     0.002494   392.791885     0.000000 
  80.916850   375.000000     0.002667   391.726249     0.000000 
  80.933850   369.000000     0.002710   390.645718     0.000000 
  80.950850   388.000000     0.002577   389.510681     0.000000 
  80.967850   405.000000     0.002469   388.286965     0.000000 
  80.984850   378.000000     0.002646   386.949435     0.000000 
  81.001850   368.000000     0.002717   385.482884     0.000000 
  81.018850   352.000000     0.002841   383.883943     0.000000 
  81.035850   375.000000     0.002667   382.158372     0.000000 
  81.052850   358.000000     0.002793   380.320354     0.000000 
  81.069850   375.000000     0.002667   378.387797     0.000000 
  81.086850   347.000000     0.002882   376.380307     0.000000 
  81.103850   337.000000     0.002967   374.315209     0.000000 
  81.120850   334.000000     0.002994   372.206163     0.000000 
  81.137850   335.000000     0.002985   370.061543     0.000000 
  81.154850   352.000000     0.002841   367.884781     0.000000 
  81.171850   373.000000     0.002681   365.675022     0.000000 
  81.188850   353.000000     0.002833   363.429072     0.000000 
  81.205850   323.000000     0.003096   361.143082     0.000000 
  81.222850   324.000000     0.003086   358.814993     0.000000 
  81.239850   332.000000     0.003012   356.445689     0.000000 
  81.256850   328.000000     0.003049   354.040476     0.000000 
  81.273850   334.000000     0.002994   351.608801     0.000000 
  81.290850   341.000000     0.002933   349.233447     0.000000 
  81.307850   321.000000     0.003115   346.791891     0.000000 
  81.324850   310.000000     0.003226   344.370557     0.000000 
  81.341850   302.000000     0.003311   341.986901     0.000000 
  81.358850   302.000000     0.003311   339.656802     0.000000 
  81.375850   327.000000     0.003058   337.394647     0.000000 
  81.392850   333.000000     0.003003   335.211700     0.000000 
  81.409850   310.000000     0.003226   333.117321     0.000000 
  81.426850   299.000000     0.003344   331.117488     0.000000 
  81.443850   314.000000     0.003185   329.216707     0.000000 
  81.460850   332.000000     0.003012   327.416546     0.000000 
  81.477850   312.000000     0.003205   325.717789     0.000000 
  81.494850   308.000000     0.003247   324.118926     0.000000 
  81.511850   298.000000     0.003356   322.618265     0.000000 
  81.528860   309.000000     0.003236   320.850187     0.000000 
  81.545860   333.000000     0.003003   319.538443     0.000000 
  81.562860   298.000000     0.003356   318.313859     0.000000 
  81.579860   314.000000     0.003185   317.172504     0.000000 
  81.596860   290.000000     0.003448   316.109486     0.000000 
  81.613860   298.000000     0.003356   315.120556     0.000000 
  81.630860   352.000000     0.002841   314.200756     0.000000 
  81.647860   332.000000     0.003012   313.345818     0.000000 
  81.664860   315.000000     0.003175   312.550965     0.000000 
  81.681860   320.000000     0.003125   311.812108     0.000000 
  81.698860   324.000000     0.003086   311.124805     0.000000 
  81.715860   358.000000     0.002793   310.485276     0.000000 
  81.732860   339.000000     0.002950   309.889508     0.000000 
  81.749860   315.000000     0.003175   309.334112     0.000000 
  81.766860   324.000000     0.003086   308.815552     0.000000 
  81.783860   349.000000     0.002865   308.330866     0.000000 
  81.800860   339.000000     0.002950   307.877012     0.000000 
  81.817860   323.000000     0.003096   307.451462     0.000000 
  81.834860   352.000000     0.002841   307.051651     0.000000 
  81.851860   378.000000     0.002646   306.675468     0.000000 
  81.868860   374.000000     0.002674   306.320792     0.000000 
  81.885860   343.000000     0.002915   305.985891     0.000000 
  81.902860   374.000000     0.002674   305.669037     0.000000 
  81.919860   374.000000     0.002674   305.368836     0.000000 
  81.936860   368.000000     0.002717   305.083896     0.000000 
  81.953860   370.000000     0.002703   304.813107     0.000000 
  81.970860   361.000000     0.002770   304.555363     0.000000 
  81.987860   388.000000     0.002577   304.752670     0.000000 
  82.004860   363.000000     0.002755   304.520689     0.000000 
  82.021860   381.000000     0.002625   304.299328     0.000000 
  82.038860   370.000000     0.002703   304.087895     0.000000 
  82.055860   387.000000     0.002584   303.885852     0.000000 
  82.072860   375.000000     0.002667   303.692648     0.000000 
  82.089860   402.000000     0.002488   303.507864     0.000000 
  82.106860   354.000000     0.002825   303.331062     0.000000 
  82.123860   339.000000     0.002950   303.161914     0.000000 
  82.140860   346.000000     0.002890   303.000070     0.000000 
  82.157860   387.000000     0.002584   302.845271     0.000000 
  82.174860   373.000000     0.002681   302.697239     0.000000 
  82.191860   359.000000     0.002786   302.555770     0.000000 
  82.208860   356.000000     0.002809   302.420641     0.000000 
  82.225860   365.000000     0.002740   302.291697     0.000000 
  82.242860   361.000000     0.002770   302.168756     0.000000 
  82.259860   360.000000     0.002778   302.051703     0.000000 
  82.276860   356.000000     0.002809   301.940397     0.000000 
  82.293860   355.000000     0.002817   301.834753     0.000000 
  82.310860   350.000000     0.002857   301.734663     0.000000 
  82.327860   352.000000     0.002841   301.640075     0.000000 
  82.344860   328.000000     0.003049   301.550910     0.000000 
  82.361860   308.000000     0.003247   301.467141     0.000000 
  82.378860   334.000000     0.002994   301.388721     0.000000 
  82.395860   311.000000     0.003215   301.315648     0.000000 
  82.412870   290.000000     0.003448   301.247865     0.000000 
  82.429870   303.000000     0.003300   301.185476     0.000000 
  82.446870   357.000000     0.002801   301.128447     0.000000 
  82.463870   356.000000     0.002809   301.076832     0.000000 
  82.480870   334.000000     0.002994   301.030666     0.000000 
  82.497870   306.000000     0.003268   300.990033     0.000000 
  82.514870   285.000000     0.003509   300.954998     0.000000 
  82.531870   304.000000     0.003289   300.925677     0.000000 
  82.548870   281.000000     0.003559   300.902171     0.000000 
  82.565870   307.000000     0.003257   300.884632     0.000000 
  82.582870   350.000000     0.002857   300.873201     0.000000 
  82.599870   319.000000     0.003135   300.424933     0.000000 
  82.616870   316.000000     0.003165   300.429223     0.000000 
  82.633870   359.000000     0.002786   300.440226     0.000000 
  82.650870   308.000000     0.003247   300.458193     0.000000 
  82.667870   330.000000     0.003030   300.483441     0.000000 
  82.684870   322.000000     0.003106   300.516295     0.000000 
  82.701870   325.000000     0.003077   300.557161     0.000000 
  82.718870   353.000000     0.002833   300.369793     0.000000 
  82.735870   284.000000     0.003521   300.429191     0.000000 
  82.752870   338.000000     0.002959   300.528818     0.000000 
  82.769870   321.000000     0.003115   300.607976     0.000000 
  82.786870   342.000000     0.002924   300.698012     0.000000 
  82.803870   317.000000     0.003155   300.799791     0.000000 
  82.820870   341.000000     0.002933   300.914244     0.000000 
  82.837870   335.000000     0.002985   301.042486     0.000000 
  82.854870   329.000000     0.003040   301.185724     0.000000 
  82.871870   313.000000     0.003195   301.345390     0.000000 
  82.888870   337.000000     0.002967   301.523037     0.000000 
  82.905870   312.000000     0.003205   301.720494     0.000000 
  82.922870   336.000000     0.002976   301.939733     0.000000 
  82.939870   327.000000     0.003058   302.183062     0.000000 
  82.956870   304.000000     0.003289   302.452950     0.000000 
  82.973870   317.000000     0.003155   302.752260     0.000000 
  82.990870   332.000000     0.003012   303.084033     0.000000 
  83.007870   346.000000     0.002890   303.451750     0.000000 
  83.024870   343.000000     0.002915   303.859074     0.000000 
  83.041870   331.000000     0.003021   304.310148     0.000000 
  83.058870   330.000000     0.003030   304.809272     0.000000 
  83.075870   313.000000     0.003195   305.361254     0.000000 
  83.092870   310.000000     0.003226   305.971001     0.000000 
  83.109870   315.000000     0.003175   306.643932     0.000000 
  83.126870   324.000000     0.003086   307.385472     0.000000 
  83.143870   333.000000     0.003003   308.201529     0.000000 
  83.160870   319.000000     0.003135   309.097882     0.000000 
  83.177870   309.000000     0.003236   310.080728     0.000000 
  83.194870   299.000000     0.003344   311.270909     0.000000 
  83.211870   331.000000     0.003021   312.445306     0.000000 
  83.228870   344.000000     0.002907   313.723967     0.000000 
  83.245870   350.000000     0.002857   315.112719     0.000000 
  83.262870   336.000000     0.002976   316.616589     0.000000 
  83.279870   338.000000     0.002959   318.240540     0.000000 
  83.296870   342.000000     0.002924   319.988405     0.000000 
  83.313880   370.000000     0.002703   321.864786     0.000000 
  83.330880   381.000000     0.002625   323.869381     0.000000 
  83.347880   368.000000     0.002717   326.004369     0.000000 
  83.364880   401.000000     0.002494   328.268724     0.000000 
  83.381880   382.000000     0.002618   330.298537     0.000000 
  83.398880   359.000000     0.002786   332.813118     0.000000 
  83.415880   359.000000     0.002786   335.441581     0.000000 
  83.432880   343.000000     0.002915   338.172391     0.000000 
  83.449880   316.000000     0.003165   340.990449     0.000000 
  83.466880   346.000000     0.002890   343.875749     0.000000 
  83.483880   396.000000     0.002525   346.803437     0.000000 
  83.500880   416.000000     0.002404   349.743019     0.000000 
  83.517880   418.000000     0.002392   352.658425     0.000000 
  83.534880   423.000000     0.002364   355.508429     0.000000 
  83.551880   416.000000     0.002404   358.247125     0.000000 
  83.568880   415.000000     0.002410   360.826270     0.000000 
  83.585880   416.000000     0.002404   363.196434     0.000000 
  83.602880   400.000000     0.002500   365.311418     0.000000 
  83.619880   427.000000     0.002342   367.129563     0.000000 
  83.636880   436.000000     0.002294   368.619123     0.000000 
  83.653880   437.000000     0.002288   369.758249     0.000000 
  83.670880   432.000000     0.002315   370.539176     0.000000 
  83.687880   440.000000     0.002273   370.965450     0.000000 
  83.704880   436.000000     0.002294   371.053424     0.000000 
  83.721880   437.000000     0.002288   370.826921     0.000000 
  83.738880   415.000000     0.002410   370.499009     0.000000 
  83.755880   427.000000     0.002342   369.736643     0.000000 
  83.772880   426.000000     0.002347   368.752811     0.000000 
  83.789880   415.000000     0.002410   367.573890     0.000000 
  83.806880   416.000000     0.002404   366.221703     0.000000 
  83.823880   411.000000     0.002433   364.711578     0.000000 
  83.840880   414.000000     0.002415   363.054243     0.000000 
  83.857880   420.000000     0.002381   361.255947     0.000000 
  83.874880   394.000000     0.002538   359.321526     0.000000 
  83.891880   367.000000     0.002725   357.255356     0.000000 
  83.908880   389.000000     0.002571   355.064335     0.000000 
  83.925880   382.000000     0.002618   352.758268     0.000000 
  83.942880   367.000000     0.002725   350.351528     0.000000 
  83.959880   369.000000     0.002710   347.862172     0.000000 
  83.976880   352.000000     0.002841   345.311936     0.000000 
  83.993880   350.000000     0.002857   342.724506     0.000000 
  84.010880   345.000000     0.002899   340.124506     0.000000 
  84.027880   364.000000     0.002747   337.535955     0.000000 
  84.044880   377.000000     0.002653   334.752233     0.000000 
  84.061880   399.000000     0.002506   332.252477     0.000000 
  84.078880   384.000000     0.002604   329.822987     0.000000 
  84.095880   354.000000     0.002825   327.477529     0.000000 
  84.112880   353.000000     0.002833   325.226409     0.000000 
  84.129880   348.000000     0.002874   323.077408     0.000000 
  84.146880   339.000000     0.002950   321.035317     0.000000 
  84.163880   314.000000     0.003185   319.385904     0.000000 
  84.180880   322.000000     0.003106   317.565222     0.000000 
  84.197890   301.000000     0.003322   315.853783     0.000000 
  84.214890   307.000000     0.003257   314.251545     0.000000 
  84.231890   312.000000     0.003205   312.754906     0.000000 
  84.248890   309.000000     0.003236   311.360125     0.000000 
  84.265890   343.000000     0.002915   310.063339     0.000000 
  84.282890   348.000000     0.002874   308.859879     0.000000 
  84.299890   323.000000     0.003096   307.745200     0.000000 
  84.316890   290.000000     0.003448   306.714219     0.000000 
  84.333890   290.000000     0.003448   305.762127     0.000000 
  84.350890   324.000000     0.003086   304.883778     0.000000 
  84.367890   322.000000     0.003106   304.074386     0.000000 
  84.384890   314.000000     0.003185   303.328978     0.000000 
  84.401890   301.000000     0.003322   302.642985     0.000000 
  84.418890   294.000000     0.003401   302.011766     0.000000 
  84.435890   318.000000     0.003145   301.431102     0.000000 
  84.452890   290.000000     0.003448   300.896782     0.000000 
  84.469890   297.000000     0.003367   300.474462     0.000000 
  84.486890   286.000000     0.003497   299.577641     0.000000 
  84.503890   288.000000     0.003472   299.162636     0.000000 
  84.520890   312.000000     0.003205   298.779906     0.000000 
  84.537890   328.000000     0.003049   298.426605     0.000000 
  84.554890   327.000000     0.003058   298.100004     0.000000 
  84.571890   322.000000     0.003106   297.623204     0.000000 
  84.588890   297.000000     0.003367   297.344055     0.000000 
  84.605890   259.000000     0.003861   297.084963     0.000000 
  84.622890   278.000000     0.003597   296.844069     0.000000 
  84.639890   313.000000     0.003195   296.619771     0.000000 
  84.656890   316.000000     0.003165   296.410569     0.000000 
  84.673890   292.000000     0.003425   296.215177     0.000000 
  84.690890   275.000000     0.003636   296.032397     0.000000 
  84.707890   286.000000     0.003497   295.861206     0.000000 
  84.724890   253.000000     0.003953   295.700654     0.000000 
  84.741890   313.000000     0.003195   295.549932     0.000000 
  84.758890   295.000000     0.003390   295.408287     0.000000 
  84.775890   314.000000     0.003185   295.275082     0.000000 
  84.792890   323.000000     0.003096   295.149719     0.000000 
  84.809890   301.000000     0.003322   295.031694     0.000000 
  84.826890   305.000000     0.003279   294.920532     0.000000 
  84.843890   303.000000     0.003300   294.815832     0.000000 
  84.860890   273.000000     0.003663   294.717212     0.000000 
  84.877890   301.000000     0.003322   294.624350     0.000000 
  84.894890   299.000000     0.003344   294.625852     0.000000 
  84.911890   302.000000     0.003311   294.543906     0.000000 
  84.928890   279.000000     0.003584   294.466894     0.000000 
  84.945890   263.000000     0.003802   294.394603     0.000000 
  84.962890   304.000000     0.003289   294.326822     0.000000 
  84.979890   292.000000     0.003425   294.263373     0.000000 
  84.996890   304.000000     0.003289   294.204081     0.000000 
  85.013890   323.000000     0.003096   294.148796     0.000000 
  85.030890   319.000000     0.003135   294.097369     0.000000 
  85.047890   297.000000     0.003367   294.049675     0.000000 
  85.064890   286.000000     0.003497   294.005588     0.000000 
  85.081890   301.000000     0.003322   293.965002     0.000000 
  85.098900   318.000000     0.003145   293.927787     0.000000 
  85.115900   307.000000     0.003257   293.893897     0.000000 
  85.132900   306.000000     0.003268   293.863219     0.000000 
  85.149900   290.000000     0.003448   293.835675     0.000000 
  85.166900   298.000000     0.003356   293.811187     0.000000 
  85.183900   311.000000     0.003215   293.789690     0.000000 
  85.200900   314.000000     0.003185   293.771120     0.000000 
  85.217900   312.000000     0.003205   293.755420     0.000000 
  85.234900   305.000000     0.003279   293.742536     0.000000 
  85.251900   289.000000     0.003460   293.732423     0.000000 
  85.268900   286.000000     0.003497   293.725034     0.000000 
  85.285900   300.000000     0.003333   293.720333     0.000000 
  85.302900   305.000000     0.003279   293.718283     0.000000 
  85.319900   323.000000     0.003096   293.718853     0.000000 
  85.336900   315.000000     0.003175   293.722015     0.000000 
  85.353900   288.000000     0.003472   293.727745     0.000000 
  85.370900   300.000000     0.003333   293.736022     0.000000 
  85.387900   307.000000     0.003257   293.746829     0.000000 
  85.404900   293.000000     0.003413   293.760150     0.000000 
  85.421900   314.000000     0.003185   293.775973     0.000000 
  85.438900   323.000000     0.003096   293.794291     0.000000 
  85.455900   308.000000     0.003247   293.815097     0.000000 
  85.472900   301.000000     0.003322   293.838389     0.000000 
  85.489900   328.000000     0.003049   293.864164     0.000000 
  85.506900   313.000000     0.003195   293.892427     0.000000 
  85.523900   314.000000     0.003185   293.923181     0.000000 
  85.540900   314.000000     0.003185   293.956434     0.000000 
  85.557900   311.000000     0.003215   293.992194     0.000000 
  85.574900   291.000000     0.003436   294.030476     0.000000 
  85.591900   310.000000     0.003226   294.071291     0.000000 
  85.608900   292.000000     0.003425   294.114659     0.000000 
  85.625900   296.000000     0.003378   294.160597     0.000000 
  85.642900   285.000000     0.003509   294.209130     0.000000 
  85.659900   310.000000     0.003226   294.260277     0.000000 
  85.676900   318.000000     0.003145   294.314069     0.000000 
  85.693900   314.000000     0.003185   294.370532     0.000000 
  85.710900   321.000000     0.003115   294.429700     0.000000 
  85.727900   323.000000     0.003096   294.491602     0.000000 
  85.744900   333.000000     0.003003   294.556279     0.000000 
  85.761900   320.000000     0.003125   294.623766     0.000000 
  85.778900   344.000000     0.002907   294.694107     0.000000 
  85.795900   291.000000     0.003436   294.767341     0.000000 
  85.812900   299.000000     0.003344   294.843519     0.000000 
  85.829900   319.000000     0.003135   294.922685     0.000000 
  85.846900   300.000000     0.003333   295.004895     0.000000 
  85.863900   288.000000     0.003472   295.090199     0.000000 
  85.880900   313.000000     0.003195   295.178657     0.000000 
  85.897900   318.000000     0.003145   295.270325     0.000000 
  85.914900   289.000000     0.003460   295.365271     0.000000 
  85.931900   264.000000     0.003788   295.463554     0.000000 
  85.948900   305.000000     0.003279   295.565249     0.000000 
  85.965900   318.000000     0.003145   295.670422     0.000000 
  85.982900   326.000000     0.003067   295.779154     0.000000 
  85.999910   336.000000     0.002976   295.662499     0.000000 
  86.016910   313.000000     0.003195   295.779623     0.000000 
  86.033910   315.000000     0.003175   295.900538     0.000000 
  86.050910   305.000000     0.003279   296.025342     0.000000 
  86.067910   305.000000     0.003279   296.184951     0.000000 
  86.084910   292.000000     0.003425   296.317954     0.000000 
  86.101910   309.000000     0.003236   296.455131     0.000000 
  86.118910   316.000000     0.003165   296.596595     0.000000 
  86.135910   297.000000     0.003367   296.742450     0.000000 
  86.152910   286.000000     0.003497   296.892818     0.000000 
  86.169910   302.000000     0.003311   297.016430     0.000000 
  86.186910   317.000000     0.003155   297.143443     0.000000 
  86.203910   324.000000     0.003086   297.308465     0.000000 
  86.220910   321.000000     0.003115   297.478510     0.000000 
  86.237910   298.000000     0.003356   297.653706     0.000000 
  86.254910   318.000000     0.003145   297.834215     0.000000 
  86.271910   322.000000     0.003106   298.020176     0.000000 
  86.288910   320.000000     0.003125   298.211763     0.000000 
  86.305910   307.000000     0.003257   298.409131     0.000000 
  86.322910   330.000000     0.003030   298.612467     0.000000 
  86.339910   318.000000     0.003145   298.848668     0.000000 
  86.356910   311.000000     0.003215   299.064561     0.000000 
  86.373910   301.000000     0.003322   299.286978     0.000000 
  86.390910   315.000000     0.003175   299.516140     0.000000 
  86.407910   287.000000     0.003484   299.752248     0.000000 
  86.424910   341.000000     0.002933   299.995544     0.000000 
  86.441910   306.000000     0.003268   300.246244     0.000000 
  86.458910   303.000000     0.003300   300.504613     0.000000 
  86.475910   281.000000     0.003559   300.770890     0.000000 
  86.492910   340.000000     0.002941   301.045360     0.000000 
  86.509910   324.000000     0.003086   301.328286     0.000000 
  86.526910   308.000000     0.003247   301.619980     0.000000 
  86.543910   298.000000     0.003356   301.745978     0.000000 
  86.560910   313.000000     0.003195   302.056910     0.000000 
  86.577910   291.000000     0.003436   302.377547     0.000000 
  86.594910   320.000000     0.003125   302.708266     0.000000 
  86.611910   299.000000     0.003344   303.049411     0.000000 
  86.628910   320.000000     0.003125   303.401393     0.000000 
  86.645910   308.000000     0.003247   303.764594     0.000000 
  86.662910   329.000000     0.003040   304.139464     0.000000 
  86.679910   331.000000     0.003021   304.526420     0.000000 
  86.696910   316.000000     0.003165   304.925960     0.000000 
  86.713910   307.000000     0.003257   305.338545     0.000000 
  86.730910   339.000000     0.002950   305.764723     0.000000 
  86.747910   312.000000     0.003205   306.205004     0.000000 
  86.764910   320.000000     0.003125   306.659994     0.000000 
  86.781910   294.000000     0.003401   307.130256     0.000000 
  86.798910   299.000000     0.003344   307.616460     0.000000 
  86.815910   310.000000     0.003226   308.086874     0.000000 
  86.832910   339.000000     0.002950   308.607156     0.000000 
  86.849910   315.000000     0.003175   309.145446     0.000000 
  86.866910   313.000000     0.003195   309.702571     0.000000 
  86.883920   296.000000     0.003378   310.279656     0.000000 
  86.900920   298.000000     0.003356   310.876946     0.000000 
  86.917920   296.000000     0.003378   311.495646     0.000000 
  86.934920   317.000000     0.003155   312.136795     0.000000 
  86.951920   317.000000     0.003155   312.801372     0.000000 
  86.968920   328.000000     0.003049   313.490546     0.000000 
  86.985920   292.000000     0.003425   314.205430     0.000000 
  87.002920   325.000000     0.003077   314.947347     0.000000 
  87.019920   314.000000     0.003185   315.717568     0.000000 
  87.036920   293.000000     0.003413   316.517605     0.000000 
  87.053920   292.000000     0.003425   317.348921     0.000000 
  87.070920   305.000000     0.003279   318.213258     0.000000 
  87.087920   323.000000     0.003096   319.112320     0.000000 
  87.104920   300.000000     0.003333   320.048138     0.000000 
  87.121920   311.000000     0.003215   321.204962     0.000000 
  87.138920   306.000000     0.003268   322.221531     0.000000 
  87.155920   301.000000     0.003322   323.281654     0.000000 
  87.172920   295.000000     0.003390   324.388192     0.000000 
  87.189920   289.000000     0.003460   325.544037     0.000000 
  87.206920   297.000000     0.003367   326.752650     0.000000 
  87.223920   291.000000     0.003436   328.017570     0.000000 
  87.240920   302.000000     0.003311   329.343035     0.000000 
  87.257920   283.000000     0.003534   330.733421     0.000000 
  87.274920   277.000000     0.003610   332.193968     0.000000 
  87.291920   289.000000     0.003460   333.730133     0.000000 
  87.308920   293.000000     0.003413   335.348437     0.000000 
  87.325920   292.000000     0.003425   337.055719     0.000000 
  87.342920   301.000000     0.003322   338.860127     0.000000 
  87.359920   310.000000     0.003226   340.770235     0.000000 
  87.376920   319.000000     0.003135   342.796227     0.000000 
  87.393920   306.000000     0.003268   344.948826     0.000000 
  87.410920   317.000000     0.003155   347.240707     0.000000 
  87.427920   321.000000     0.003115   349.685197     0.000000 
  87.444920   328.000000     0.003049   352.297961     0.000000 
  87.461920   324.000000     0.003086   355.095402     0.000000 
  87.478920   317.000000     0.003155   358.096674     0.000000 
  87.495920   329.000000     0.003040   361.321710     0.000000 
  87.512920   342.000000     0.002924   364.793620     0.000000 
  87.529920   333.000000     0.003003   368.536247     0.000000 
  87.546920   316.000000     0.003165   372.577023     0.000000 
  87.563920   354.000000     0.002825   376.943953     0.000000 
  87.580920   359.000000     0.002786   381.668997     0.000000 
  87.597920   357.000000     0.002801   387.067543     0.000000 
  87.614920   338.000000     0.002959   392.610967     0.000000 
  87.631920   290.000000     0.003448   398.617357     0.000000 
  87.648920   362.000000     0.002762   405.127301     0.000000 
  87.665920   343.000000     0.002915   412.180378     0.000000 
  87.682920   337.000000     0.002967   419.820582     0.000000 
  87.699920   354.000000     0.002825   428.089909     0.000000 
  87.716920   355.000000     0.002817   437.034595     0.000000 
  87.733920   372.000000     0.002688   446.697632     0.000000 
  87.750920   339.000000     0.002950   457.125862     0.000000 
  87.767920   338.000000     0.002959   468.361391     0.000000 
  87.784930   402.000000     0.002488   480.456915     0.000000 
  87.801930   352.000000     0.002841   493.437017     0.000000 
  87.818930   380.000000     0.002632   507.349768     0.000000 
  87.835930   388.000000     0.002577   522.227657     0.000000 
  87.852930   417.000000     0.002398   538.104379     0.000000 
  87.869930   436.000000     0.002294   555.002542     0.000000 
  87.886930   444.000000     0.002252   572.944067     0.000000 
  87.903930   456.000000     0.002193   591.937002     0.000000 
  87.920930   484.000000     0.002066   611.985971     0.000000 
  87.937930   482.000000     0.002075   633.078279     0.000000 
  87.954930   499.000000     0.002004   655.193849     0.000000 
  87.971930   529.000000     0.001890   678.290961     0.000000 
  87.988930   580.000000     0.001724   702.314956     0.000000 
  88.005930   566.000000     0.001767   727.184270     0.000000 
  88.022930   567.000000     0.001764   752.797193     0.000000 
  88.039930   596.000000     0.001678   779.019425     0.000000 
  88.056930   622.000000     0.001608   805.688472     0.000000 
  88.073930   669.000000     0.001495   832.605017     0.000000 
  88.090930   684.000000     0.001462   859.535066     0.000000 
  88.107930   700.000000     0.001429   886.208784     0.000000 
  88.124930   750.000000     0.001333   912.321287     0.000000 
  88.141930   786.000000     0.001272   937.543364     0.000000 
  88.158930   818.000000     0.001222   961.521950     0.000000 
  88.175930   834.000000     0.001199   983.905830     0.000000 
  88.192930   855.000000     0.001170  1004.345126     0.000000 
  88.209930   902.000000     0.001109  1022.530465     0.000000 
  88.226930   913.000000     0.001095  1038.122759     0.000000 
  88.243930   897.000000     0.001115  1051.055236     0.000000 
  88.260930   903.000000     0.001107  1061.128457     0.000000 
  88.277930   887.000000     0.001127  1068.306693     0.000000 
  88.294930   848.000000     0.001179  1072.618287     0.000000 
  88.311930   848.000000     0.001179  1074.180153     0.000000 
  88.328930   844.000000     0.001185  1073.149991     0.000000 
  88.345930   862.000000     0.001160  1069.738314     0.000000 
  88.362930   894.000000     0.001119  1064.158934     0.000000 
  88.379930   931.000000     0.001074  1056.636453     0.000000 
  88.396930   916.000000     0.001092  1047.455337     0.000000 
  88.413930   870.000000     0.001149  1036.614724     0.000000 
  88.430930   827.000000     0.001209  1024.336881     0.000000 
  88.447930   806.000000     0.001241  1010.818742     0.000000 
  88.464930   835.000000     0.001198   995.954603     0.000000 
  88.481930   806.000000     0.001241   979.892122     0.000000 
  88.498930   777.000000     0.001287   962.674654     0.000000 
  88.515930   708.000000     0.001412   944.355389     0.000000 
  88.532930   733.000000     0.001364   924.994452     0.000000 
  88.549930   763.000000     0.001311   904.679297     0.000000 
  88.566930   689.000000     0.001451   883.517197     0.000000 
  88.583930   637.000000     0.001570   861.645919     0.000000 
  88.600930   618.000000     0.001618   839.221343     0.000000 
  88.617930   655.000000     0.001527   816.418545     0.000000 
  88.634930   629.000000     0.001590   793.418874     0.000000 
  88.651930   622.000000     0.001608   770.405011     0.000000 
  88.668930   583.000000     0.001715   747.552658     0.000000 
  88.685940   603.000000     0.001658   725.010211     0.000000 
  88.702940   614.000000     0.001629   702.950598     0.000000 
  88.719940   521.000000     0.001919   681.483871     0.000000 
  88.736940   512.000000     0.001953   660.716579     0.000000 
  88.753940   501.000000     0.001996   640.730217     0.000000 
  88.770940   461.000000     0.002169   621.592179     0.000000 
  88.787940   461.000000     0.002169   603.346822     0.000000 
  88.804940   455.000000     0.002198   586.029023     0.000000 
  88.821940   426.000000     0.002347   569.654323     0.000000 
  88.838940   418.000000     0.002392   554.233427     0.000000 
  88.855940   443.000000     0.002257   539.761522     0.000000 
  88.872940   412.000000     0.002427   526.200261     0.000000 
  88.889940   391.000000     0.002558   513.596757     0.000000 
  88.906940   379.000000     0.002639   501.902070     0.000000 
  88.923940   396.000000     0.002525   491.090285     0.000000 
  88.940940   362.000000     0.002762   481.139182     0.000000 
  88.957940   365.000000     0.002740   472.018890     0.000000 
  88.974940   376.000000     0.002660   463.704486     0.000000 
  88.991940   380.000000     0.002632   456.164873     0.000000 
  89.008940   389.000000     0.002571   449.374686     0.000000 
  89.025940   373.000000     0.002681   443.303479     0.000000 
  89.042940   382.000000     0.002618   437.926986     0.000000 
  89.059940   371.000000     0.002695   433.216631     0.000000 
  89.076940   356.000000     0.002809   429.150230     0.000000 
  89.093940   364.000000     0.002747   425.701791     0.000000 
  89.110940   365.000000     0.002740   422.851737     0.000000 
  89.127940   363.000000     0.002755   420.576947     0.000000 
  89.144940   367.000000     0.002725   418.860582     0.000000 
  89.161940   348.000000     0.002874   417.682311     0.000000 
  89.178940   345.000000     0.002899   417.027808     0.000000 
  89.195940   340.000000     0.002941   416.879118     0.000000 
  89.212940   356.000000     0.002809   417.223881     0.000000 
  89.229940   365.000000     0.002740   418.045798     0.000000 
  89.246940   362.000000     0.002762   419.333600     0.000000 
  89.263940   346.000000     0.002890   421.071619     0.000000 
  89.280940   353.000000     0.002833   423.248459     0.000000 
  89.297940   346.000000     0.002890   425.847715     0.000000 
  89.314940   328.000000     0.003049   428.856241     0.000000 
  89.331940   380.000000     0.002632   432.255115     0.000000 
  89.348940   364.000000     0.002747   436.027317     0.000000 
  89.365940   360.000000     0.002778   440.149120     0.000000 
  89.382940   355.000000     0.002817   444.596923     0.000000 
  89.399940   359.000000     0.002786   449.339378     0.000000 
  89.416940   388.000000     0.002577   454.343037     0.000000 
  89.433940   387.000000     0.002584   459.565775     0.000000 
  89.450940   368.000000     0.002717   464.960886     0.000000 
  89.467940   385.000000     0.002597   470.472649     0.000000 
  89.484940   409.000000     0.002445   476.038578     0.000000 
  89.501940   387.000000     0.002584   481.588314     0.000000 
  89.518940   405.000000     0.002469   487.043829     0.000000 
  89.535940   403.000000     0.002481   492.322976     0.000000 
  89.552940   414.000000     0.002415   497.337466     0.000000 
  89.569950   408.000000     0.002451   502.004645     0.000000 
  89.586950   433.000000     0.002309   506.231984     0.000000 
  89.603950   462.000000     0.002165   509.948208     0.000000 
  89.620950   444.000000     0.002252   513.083635     0.000000 
  89.637950   418.000000     0.002392   515.591023     0.000000 
  89.654950   477.000000     0.002096   517.432597     0.000000 
  89.671950   445.000000     0.002247   518.598184     0.000000 
  89.688950   401.000000     0.002494   519.087699     0.000000 
  89.705950   463.000000     0.002160   518.926761     0.000000 
  89.722950   459.000000     0.002179   518.146403     0.000000 
  89.739950   396.000000     0.002525   516.795339     0.000000 
  89.756950   414.000000     0.002415   514.962883     0.000000 
  89.773950   391.000000     0.002558   512.617507     0.000000 
  89.790950   397.000000     0.002519   509.846853     0.000000 
  89.807950   413.000000     0.002421   506.695679     0.000000 
  89.824950   421.000000     0.002375   503.196357     0.000000 
  89.841950   407.000000     0.002457   499.332984     0.000000 
  89.858950   410.000000     0.002439   495.310249     0.000000 
  89.875950   399.000000     0.002506   490.907832     0.000000 
  89.892950   387.000000     0.002584   486.231523     0.000000 
  89.909950   390.000000     0.002564   481.294642     0.000000 
  89.926950   381.000000     0.002625   476.109119     0.000000 
  89.943950   395.000000     0.002532   470.694282     0.000000 
  89.960950   356.000000     0.002809   465.079223     0.000000 
  89.977950   365.000000     0.002740   459.298994     0.000000 
  89.994950   390.000000     0.002564   453.355891     0.000000 
  90.011950   378.000000     0.002646   447.309346     0.000000 
  90.028950   398.000000     0.002513   441.201025     0.000000 
  90.045950   395.000000     0.002532   435.074841     0.000000 
  90.062950   356.000000     0.002809   428.973744     0.000000 
  90.079950   349.000000     0.002865   422.938574     0.000000 
  90.096950   358.000000     0.002793   417.007445     0.000000 
  90.113950   339.000000     0.002950   411.213332     0.000000 
  90.130950   337.000000     0.002967   405.586018     0.000000 
  90.147950   342.000000     0.002924   400.148795     0.000000 
  90.164950   355.000000     0.002817   394.922347     0.000000 
  90.181950   353.000000     0.002833   389.920774     0.000000 
  90.198950   324.000000     0.003086   385.156667     0.000000 
  90.215950   333.000000     0.003003   380.636642     0.000000 
  90.232950   355.000000     0.002817   376.366953     0.000000 
  90.249950   332.000000     0.003012   372.348745     0.000000 
  90.266950   320.000000     0.003125   368.583748     0.000000 
  90.283950   336.000000     0.002976   365.069471     0.000000 
  90.300950   340.000000     0.002941   361.804673     0.000000 
  90.317950   308.000000     0.003247   358.784699     0.000000 
  90.334950   327.000000     0.003058   356.006548     0.000000 
  90.351950   331.000000     0.003021   353.464517     0.000000 
  90.368950   312.000000     0.003205   351.154743     0.000000 
  90.385950   335.000000     0.002985   349.071279     0.000000 
  90.402950   338.000000     0.002959   347.210056     0.000000 
  90.419950   333.000000     0.003003   345.565454     0.000000 
  90.436950   329.000000     0.003040   344.133654     0.000000 
  90.453950   352.000000     0.002841   342.909751     0.000000 
  90.470960   338.000000     0.002959   341.889935     0.000000 
  90.487960   361.000000     0.002770   341.071455     0.000000 
  90.504960   349.000000     0.002865   340.451108     0.000000 
  90.521960   317.000000     0.003155   340.026001     0.000000 
  90.538960   313.000000     0.003195   339.794368     0.000000 
  90.555960   340.000000     0.002941   339.754371     0.000000 
  90.572960   293.000000     0.003413   339.904964     0.000000 
  90.589960   329.000000     0.003040   340.245244     0.000000 
  90.606960   332.000000     0.003012   340.774732     0.000000 
  90.623960   344.000000     0.002907   341.493239     0.000000 
  90.640960   345.000000     0.002899   342.400601     0.000000 
  90.657960   340.000000     0.002941   343.497024     0.000000 
  90.674960   338.000000     0.002959   344.782320     0.000000 
  90.691960   354.000000     0.002825   346.256668     0.000000 
  90.708960   345.000000     0.002899   347.919421     0.000000 
  90.725960   340.000000     0.002941   349.770200     0.000000 
  90.742960   331.000000     0.003021   351.807351     0.000000 
  90.759960   338.000000     0.002959   354.029275     0.000000 
  90.776960   345.000000     0.002899   356.432609     0.000000 
  90.793960   355.000000     0.002817   359.013692     0.000000 
  90.810960   344.000000     0.002907   361.766554     0.000000 
  90.827960   337.000000     0.002967   364.684390     0.000000 
  90.844960   360.000000     0.002778   367.757476     0.000000 
  90.861960   371.000000     0.002695   370.974502     0.000000 
  90.878960   351.000000     0.002849   374.320586     0.000000 
  90.895960   359.000000     0.002786   377.778307     0.000000 
  90.912960   367.000000     0.002725   381.326094     0.000000 
  90.929960   378.000000     0.002646   384.938803     0.000000 
  90.946960   414.000000     0.002415   388.586893     0.000000 
  90.963960   419.000000     0.002387   392.236453     0.000000 
  90.980960   438.000000     0.002283   395.849690     0.000000 
  90.997960   420.000000     0.002381   399.384383     0.000000 
  91.014960   424.000000     0.002358   402.796264     0.000000 
  91.031960   418.000000     0.002392   406.037863     0.000000 
  91.048960   402.000000     0.002488   409.063140     0.000000 
  91.065960   415.000000     0.002410   411.825553     0.000000 
  91.082960   415.000000     0.002410   414.284757     0.000000 
  91.099960   414.000000     0.002415   416.403423     0.000000 
  91.116960   417.000000     0.002398   418.155093     0.000000 
  91.133960   411.000000     0.002433   419.519179     0.000000 
  91.150960   422.000000     0.002370   420.488585     0.000000 
  91.167960   438.000000     0.002283   421.062664     0.000000 
  91.184960   436.000000     0.002294   421.253504     0.000000 
  91.201960   426.000000     0.002347   421.077434     0.000000 
  91.218960   427.000000     0.002342   420.559715     0.000000 
  91.235960   458.000000     0.002183   419.725879     0.000000 
  91.252960   459.000000     0.002179   418.605368     0.000000 
  91.269960   452.000000     0.002212   417.224040     0.000000 
  91.286960   444.000000     0.002252   415.607561     0.000000 
  91.303960   429.000000     0.002331   413.775836     0.000000 
  91.320960   465.000000     0.002151   411.746735     0.000000 
  91.337960   419.000000     0.002387   409.532448     0.000000 
  91.354970   414.000000     0.002415   407.142259     0.000000 
  91.371970   417.000000     0.002398   404.585962     0.000000 
  91.388970   415.000000     0.002410   401.869918     0.000000 
  91.405970   413.000000     0.002421   399.000780     0.000000 
  91.422970   407.000000     0.002457   395.988273     0.000000 
  91.439970   383.000000     0.002611   392.843263     0.000000 
  91.456970   397.000000     0.002519   389.580872     0.000000 
  91.473970   399.000000     0.002506   386.218167     0.000000 
  91.490970   404.000000     0.002475   382.775933     0.000000 
  91.507970   399.000000     0.002506   379.276275     0.000000 
  91.524970   390.000000     0.002564   375.743159     0.000000 
  91.541970   409.000000     0.002445   372.200521     0.000000 
  91.558970   389.000000     0.002571   368.671924     0.000000 
  91.575970   384.000000     0.002604   365.179674     0.000000 
  91.592970   397.000000     0.002519   361.743939     0.000000 
  91.609970   408.000000     0.002451   358.383003     0.000000 
  91.626970   396.000000     0.002525   355.112044     0.000000 
  91.643970   365.000000     0.002740   351.944369     0.000000 
  91.660970   360.000000     0.002778   348.889924     0.000000 
  91.677970   409.000000     0.002445   345.957205     0.000000 
  91.694970   383.000000     0.002611   343.151540     0.000000 
  91.711970   390.000000     0.002564   340.477379     0.000000 
  91.728970   363.000000     0.002755   337.936400     0.000000 
  91.745970   343.000000     0.002915   335.529943     0.000000 
  91.762970   340.000000     0.002941   333.257017     0.000000 
  91.779970   379.000000     0.002639   331.116728     0.000000 
  91.796970   400.000000     0.002500   329.106254     0.000000 
  91.813970   361.000000     0.002770   327.223184     0.000000 
  91.830970   396.000000     0.002525   325.463522     0.000000 
  91.847970   376.000000     0.002660   323.823893     0.000000 
  91.864970   350.000000     0.002857   322.299621     0.000000 
  91.881970   378.000000     0.002646   320.886780     0.000000 
  91.898970   386.000000     0.002591   319.580386     0.000000 
  91.915970   398.000000     0.002513   318.376267     0.000000 
  91.932970   405.000000     0.002469   317.269405     0.000000 
  91.949970   392.000000     0.002551   316.255623     0.000000 
  91.966970   393.000000     0.002545   315.330068     0.000000 
  91.983970   404.000000     0.002475   314.488737     0.000000 
  92.000970   418.000000     0.002392   313.727103     0.000000 
  92.017970   394.000000     0.002538   313.041475     0.000000 
  92.034970   381.000000     0.002625   312.382417     0.000000 
  92.051970   391.000000     0.002558   311.837536     0.000000 
  92.068970   384.000000     0.002604   311.357737     0.000000 
  92.085970   389.000000     0.002571   310.940245     0.000000 
  92.102970   403.000000     0.002481   310.582074     0.000000 
  92.119970   397.000000     0.002519   310.281003     0.000000 
  92.136970   421.000000     0.002375   310.034658     0.000000 
  92.153970   444.000000     0.002252   309.841400     0.000000 
  92.170970   425.000000     0.002353   309.699479     0.000000 
  92.187970   432.000000     0.002315   309.607852     0.000000 
  92.204970   434.000000     0.002304   309.565382     0.000000 
  92.221970   430.000000     0.002326   309.571617     0.000000 
  92.238970   443.000000     0.002257   309.626008     0.000000 
  92.255980   450.000000     0.002222   309.728742     0.000000 
  92.272980   453.000000     0.002208   309.914508     0.000000 
  92.289980   440.000000     0.002273   310.168381     0.000000 
  92.306980   458.000000     0.002183   310.418001     0.000000 
  92.323980   463.000000     0.002160   310.718133     0.000000 
  92.340980   432.000000     0.002315   311.069682     0.000000 
  92.357980   458.000000     0.002183   311.474161     0.000000 
  92.374980   471.000000     0.002123   311.932808     0.000000 
  92.391980   461.000000     0.002169   312.447451     0.000000 
  92.408980   451.000000     0.002217   313.019562     0.000000 
  92.425980   423.000000     0.002364   313.651182     0.000000 
  92.442980   413.000000     0.002421   314.343901     0.000000 
  92.459980   466.000000     0.002146   315.099855     0.000000 
  92.476980   415.000000     0.002410   315.920633     0.000000 
  92.493980   419.000000     0.002387   316.808327     0.000000 
  92.510980   433.000000     0.002309   317.764381     0.000000 
  92.527980   420.000000     0.002381   318.790696     0.000000 
  92.544980   405.000000     0.002469   319.888408     0.000000 
  92.561980   452.000000     0.002212   321.059045     0.000000 
  92.578980   425.000000     0.002353   322.303252     0.000000 
  92.595980   391.000000     0.002558   323.621971     0.000000 
  92.612980   392.000000     0.002551   325.015129     0.000000 
  92.629980   412.000000     0.002427   326.482815     0.000000 
  92.646980   426.000000     0.002347   328.023954     0.000000 
  92.663980   430.000000     0.002326   329.637443     0.000000 
  92.680980   414.000000     0.002415   331.320847     0.000000 
  92.697980   427.000000     0.002342   333.071434     0.000000 
  92.714980   356.000000     0.002809   334.884961     0.000000 
  92.731980   408.000000     0.002451   336.756540     0.000000 
  92.748980   435.000000     0.002299   338.679599     0.000000 
  92.765980   436.000000     0.002294   340.646515     0.000000 
  92.782980   454.000000     0.002203   342.647887     0.000000 
  92.799980   428.000000     0.002336   344.672864     0.000000 
  92.816980   437.000000     0.002288   346.708919     0.000000 
  92.833980   432.000000     0.002315   348.741827     0.000000 
  92.850980   445.000000     0.002247   350.756159     0.000000 
  92.867980   434.000000     0.002304   352.803273     0.000000 
  92.884980   440.000000     0.002273   354.729316     0.000000 
  92.901980   444.000000     0.002252   356.584247     0.000000 
  92.918980   464.000000     0.002155   358.351197     0.000000 
  92.935980   460.000000     0.002174   360.013307     0.000000 
  92.952980   457.000000     0.002188   361.557016     0.000000 
  92.969980   451.000000     0.002217   362.969959     0.000000 
  92.986980   434.000000     0.002304   364.244719     0.000000 
  93.003980   428.000000     0.002336   365.375875     0.000000 
  93.020980   455.000000     0.002198   366.363678     0.000000 
  93.037980   474.000000     0.002110   367.210317     0.000000 
  93.054980   458.000000     0.002183   367.923141     0.000000 
  93.071980   454.000000     0.002203   368.510473     0.000000 
  93.088980   440.000000     0.002273   368.984294     0.000000 
  93.105980   423.000000     0.002364   369.356125     0.000000 
  93.122980   454.000000     0.002203   369.639336     0.000000 
  93.139980   457.000000     0.002188   369.845554     0.000000 
  93.156990   452.000000     0.002212   369.986934     0.000000 
  93.173990   448.000000     0.002232   370.072988     0.000000 
  93.190990   435.000000     0.002299   370.113424     0.000000 
  93.207990   410.000000     0.002439   370.115534     0.000000 
  93.224990   432.000000     0.002315   370.086859     0.000000 
  93.241990   433.000000     0.002309   370.033372     0.000000 
  93.258990   406.000000     0.002463   369.962153     0.000000 
  93.275990   391.000000     0.002558   369.879708     0.000000 
  93.292990   394.000000     0.002538   369.794591     0.000000 
  93.309990   374.000000     0.002674   369.715590     0.000000 
  93.326990   378.000000     0.002646   369.654094     0.000000 
  93.343990   405.000000     0.002469   369.622052     0.000000 
  93.360990   409.000000     0.002445   369.633978     0.000000 
  93.377990   409.000000     0.002445   369.704749     0.000000 
  93.394990   366.000000     0.002732   369.851293     0.000000 
  93.411990   392.000000     0.002551   370.090401     0.000000 
  93.428990   417.000000     0.002398   370.440231     0.000000 
  93.445990   393.000000     0.002545   370.918277     0.000000 
  93.462990   382.000000     0.002618   371.542849     0.000000 
  93.479990   395.000000     0.002532   372.331216     0.000000 
  93.496990   370.000000     0.002703   373.301185     0.000000 
  93.513990   410.000000     0.002439   374.469322     0.000000 
  93.530990   410.000000     0.002439   375.852724     0.000000 
  93.547990   389.000000     0.002571   377.467150     0.000000 
  93.564990   390.000000     0.002564   379.329064     0.000000 
  93.581990   426.000000     0.002347   381.453513     0.000000 
  93.598990   359.000000     0.002786   383.856504     0.000000 
  93.615990   388.000000     0.002577   386.552497     0.000000 
  93.632990   397.000000     0.002519   389.557176     0.000000 
  93.649990   425.000000     0.002353   392.884464     0.000000 
  93.666990   396.000000     0.002525   396.549739     0.000000 
  93.683990   394.000000     0.002538   400.566315     0.000000 
  93.700990   416.000000     0.002404   404.949135     0.000000 
  93.717990   396.000000     0.002525   409.710699     0.000000 
  93.734990   426.000000     0.002347   414.908083     0.000000 
  93.751990   435.000000     0.002299   420.467087     0.000000 
  93.768990   425.000000     0.002353   426.443465     0.000000 
  93.785990   437.000000     0.002288   432.846905     0.000000 
  93.802990   453.000000     0.002208   439.688703     0.000000 
  93.819990   438.000000     0.002283   446.976233     0.000000 
  93.836990   465.000000     0.002151   454.718182     0.000000 
  93.853990   474.000000     0.002110   463.014743     0.000000 
  93.870990   480.000000     0.002083   471.679176     0.000000 
  93.887990   468.000000     0.002137   480.806880     0.000000 
  93.904990   510.000000     0.001961   490.397510     0.000000 
  93.921990   506.000000     0.001976   500.444735     0.000000 
  93.938990   536.000000     0.001866   510.940874     0.000000 
  93.955990   568.000000     0.001761   521.871394     0.000000 
  93.972990   600.000000     0.001667   533.218689     0.000000 
  93.989990   609.000000     0.001642   544.957471     0.000000 
  94.006990   642.000000     0.001558   557.057287     0.000000 
  94.023990   677.000000     0.001477   569.479488     0.000000 
  94.041000   680.000000     0.001471   582.185680     0.000000 
  94.058000   672.000000     0.001488   595.107116     0.000000 
  94.075000   675.000000     0.001481   608.188578     0.000000 
  94.092000   744.000000     0.001344   621.361712     0.000000 
  94.109000   812.000000     0.001232   634.549211     0.000000 
  94.126000   821.000000     0.001218   647.672769     0.000000 
  94.143000   852.000000     0.001174   660.647272     0.000000 
  94.160000   914.000000     0.001094   673.394236     0.000000 
  94.177000   911.000000     0.001098   685.832940     0.000000 
  94.194000   927.000000     0.001079   697.898865     0.000000 
  94.211000   908.000000     0.001101   709.530962     0.000000 
  94.228000   962.000000     0.001040   720.693327     0.000000 
  94.245000   958.000000     0.001044   731.357925     0.000000 
  94.262000   938.000000     0.001066   741.587036     0.000000 
  94.279000   943.000000     0.001060   751.270752     0.000000 
  94.296000   943.000000     0.001060   760.508363     0.000000 
  94.313000   943.000000     0.001060   769.343113     0.000000 
  94.330000   961.000000     0.001041   777.839859     0.000000 
  94.347000   953.000000     0.001049   786.059805     0.000000 
  94.364000   937.000000     0.001067   794.075580     0.000000 
  94.381000   944.000000     0.001059   801.948052     0.000000 
  94.398000   971.000000     0.001030   809.739961     0.000000 
  94.415000   907.000000     0.001103   817.496487     0.000000 
  94.432000   935.000000     0.001070   825.258442     0.000000 
  94.449000   941.000000     0.001063   833.046894     0.000000 
  94.466000   922.000000     0.001085   840.876426     0.000000 
  94.483000   967.000000     0.001034   848.743031     0.000000 
  94.500000   947.000000     0.001056   856.637273     0.000000 
  94.517000   934.000000     0.001071   864.534180     0.000000 
  94.534000  1019.000000     0.000981   872.405479     0.000000 
  94.551000   943.000000     0.001060   880.210410     0.000000 
  94.568000  1023.000000     0.000978   887.905974     0.000000 
  94.585000  1006.000000     0.000994   895.438323     0.000000 
  94.602000   971.000000     0.001030   902.750248     0.000000 
  94.619000   916.000000     0.001092   909.774096     0.000000 
  94.636000   928.000000     0.001078   916.436434     0.000000 
  94.653000   849.000000     0.001178   922.654278     0.000000 
  94.670000   833.000000     0.001200   928.341774     0.000000 
  94.687000   883.000000     0.001133   933.395187     0.000000 
  94.704000   863.000000     0.001159   937.718612     0.000000 
  94.721000   839.000000     0.001192   941.214876     0.000000 
  94.738000   845.000000     0.001183   943.789290     0.000000 
  94.755000   844.000000     0.001185   945.361653     0.000000 
  94.772000   870.000000     0.001149   945.863291     0.000000 
  94.789000   871.000000     0.001148   945.251030     0.000000 
  94.806000   810.000000     0.001235   943.499969     0.000000 
  94.823000   786.000000     0.001272   940.616335     0.000000 
  94.840000   810.000000     0.001235   936.625182     0.000000 
  94.857000   778.000000     0.001285   931.580176     0.000000 
  94.874000   809.000000     0.001236   925.547302     0.000000 
  94.891000   789.000000     0.001267   918.611737     0.000000 
  94.908000   779.000000     0.001284   910.860123     0.000000 
  94.925000   773.000000     0.001294   902.386182     0.000000 
  94.942010   777.000000     0.001287   893.269046     0.000000 
  94.959010   775.000000     0.001290   883.601186     0.000000 
  94.976010   771.000000     0.001297   873.443795     0.000000 
  94.993010   742.000000     0.001348   862.855510     0.000000 
  95.010010   762.000000     0.001312   851.879172     0.000000 
  95.027010   807.000000     0.001239   840.551093     0.000000 
  95.044010   787.000000     0.001271   828.896459     0.000000 
  95.061010   758.000000     0.001319   816.939350     0.000000 
  95.078010   754.000000     0.001326   804.258248     0.000000 
  95.095010   770.000000     0.001299   791.765135     0.000000 
  95.112010   745.000000     0.001342   779.044904     0.000000 
  95.129010   699.000000     0.001431   766.136729     0.000000 
  95.146010   707.000000     0.001414   753.086694     0.000000 
  95.163010   691.000000     0.001447   739.951513     0.000000 
  95.180010   665.000000     0.001504   726.794379     0.000000 
  95.197010   657.000000     0.001522   713.685720     0.000000 
  95.214010   643.000000     0.001555   700.698964     0.000000 
  95.231010   645.000000     0.001550   687.909254     0.000000 
  95.248010   659.000000     0.001517   675.390284     0.000000 
  95.265010   609.000000     0.001642   663.212032     0.000000 
  95.282010   609.000000     0.001642   651.439444     0.000000 
  95.299010   599.000000     0.001669   640.129870     0.000000 
  95.316010   600.000000     0.001667   629.333724     0.000000 
  95.333010   600.000000     0.001667   619.091857     0.000000 
  95.350010   558.000000     0.001792   609.437811     0.000000 
  95.367010   553.000000     0.001808   600.395103     0.000000 
  95.384010   607.000000     0.001647   591.980493     0.000000 
  95.401010   568.000000     0.001761   584.201133     0.000000 
  95.418010   561.000000     0.001783   577.058258     0.000000 
  95.435010   584.000000     0.001712   570.544243     0.000000 
  95.452010   538.000000     0.001859   564.646244     0.000000 
  95.469010   525.000000     0.001905   559.343345     0.000000 
  95.486010   570.000000     0.001754   554.609794     0.000000 
  95.503010   522.000000     0.001916   550.412564     0.000000 
  95.520010   498.000000     0.002008   546.713903     0.000000 
  95.537010   542.000000     0.001845   543.469787     0.000000 
  95.554010   573.000000     0.001745   540.631567     0.000000 
  95.571010   566.000000     0.001767   538.145859     0.000000 
  95.588010   485.000000     0.002062   535.955155     0.000000 
  95.605010   525.000000     0.001905   533.999651     0.000000 
  95.622010   519.000000     0.001927   532.216702     0.000000 
  95.639010   560.000000     0.001786   530.544903     0.000000 
  95.656010   548.000000     0.001825   528.922181     0.000000 
  95.673010   563.000000     0.001776   527.292049     0.000000 
  95.690010   537.000000     0.001862   525.600050     0.000000 
  95.707010   523.000000     0.001912   523.801538     0.000000 
  95.724010   569.000000     0.001757   521.856210     0.000000 
  95.741010   570.000000     0.001754   519.736400     0.000000 
  95.758010   530.000000     0.001887   517.419679     0.000000 
  95.775010   529.000000     0.001890   514.896648     0.000000 
  95.792010   556.000000     0.001799   512.162098     0.000000 
  95.809010   485.000000     0.002062   509.221723     0.000000 
  95.826010   467.000000     0.002141   506.082778     0.000000 
  95.843020   482.000000     0.002075   502.757693     0.000000 
  95.860020   482.000000     0.002075   499.263304     0.000000 
  95.877020   481.000000     0.002079   495.613919     0.000000 
  95.894020   475.000000     0.002105   491.821818     0.000000 
  95.911020   457.000000     0.002188   487.899885     0.000000 
  95.928020   455.000000     0.002198   483.856047     0.000000 
  95.945020   459.000000     0.002179   479.697900     0.000000 
  95.962020   442.000000     0.002262   475.428631     0.000000 
  95.979020   432.000000     0.002315   471.051776     0.000000 
  95.996020   466.000000     0.002146   466.568154     0.000000 
  96.013020   476.000000     0.002101   461.980574     0.000000 
  96.030020   476.000000     0.002101   457.291186     0.000000 
  96.047020   481.000000     0.002079   452.505755     0.000000 
  96.064020   456.000000     0.002193   447.631021     0.000000 
  96.081020   425.000000     0.002353   442.678089     0.000000 
  96.098020   450.000000     0.002222   437.659694     0.000000 
  96.115020   438.000000     0.002283   432.592455     0.000000 
  96.132020   435.000000     0.002299   427.494268     0.000000 
  96.149020   416.000000     0.002404   422.385419     0.000000 
  96.166020   397.000000     0.002519   417.286533     0.000000 
  96.183020   389.000000     0.002571   412.218718     0.000000 
  96.200020   369.000000     0.002710   407.202453     0.000000 
  96.217020   366.000000     0.002732   402.256987     0.000000 
  96.234020   370.000000     0.002703   397.400331     0.000000 
  96.251020   362.000000     0.002762   392.648094     0.000000 
  96.268020   356.000000     0.002809   388.014499     0.000000 
  96.285020   386.000000     0.002591   383.510791     0.000000 
  96.302020   361.000000     0.002770   379.147047     0.000000 
  96.319020   346.000000     0.002890   374.930252     0.000000 
  96.336020   391.000000     0.002558   370.866639     0.000000 
  96.353020   376.000000     0.002660   366.959506     0.000000 
  96.370020   380.000000     0.002632   363.211872     0.000000 
  96.387020   333.000000     0.003003   359.624109     0.000000 
  96.404020   348.000000     0.002874   356.196727     0.000000 
  96.421020   346.000000     0.002890   352.927918     0.000000 
  96.438020   331.000000     0.003021   349.816341     0.000000 
  96.455020   289.000000     0.003460   346.858656     0.000000 
  96.472020   340.000000     0.002941   344.052220     0.000000 
  96.489020   329.000000     0.003040   341.392686     0.000000 
  96.506020   349.000000     0.002865   338.876549     0.000000 
  96.523020   307.000000     0.003257   336.498862     0.000000 
  96.540020   332.000000     0.003012   334.255603     0.000000 
  96.557020   326.000000     0.003067   332.141538     0.000000 
  96.574020   365.000000     0.002740   330.152394     0.000000 
  96.591020   325.000000     0.003077   328.282892     0.000000 
  96.608020   321.000000     0.003115   326.528717     0.000000 
  96.625020   309.000000     0.003236   324.884733     0.000000 
  96.642020   314.000000     0.003185   323.346743     0.000000 
  96.659020   360.000000     0.002778   321.909895     0.000000 
  96.676020   314.000000     0.003185   320.570241     0.000000 
  96.693020   351.000000     0.002849   319.209189     0.000000 
  96.710020   363.000000     0.002755   318.051969     0.000000 
  96.727030   340.000000     0.002941   317.050216     0.000000 
  96.744030   330.000000     0.003030   316.060283     0.000000 
  96.761030   314.000000     0.003185   315.148840     0.000000 
  96.778030   307.000000     0.003257   314.313127     0.000000 
  96.795030   317.000000     0.003155   313.550255     0.000000 
  96.812030   332.000000     0.003012   312.857938     0.000000 
  96.829030   319.000000     0.003135   312.233841     0.000000 
  96.846030   305.000000     0.003279   311.676152     0.000000 
  96.863030   314.000000     0.003185   311.183075     0.000000 
  96.880030   357.000000     0.002801   310.753249     0.000000 
  96.897030   357.000000     0.002801   310.385380     0.000000 
  96.914030   344.000000     0.002907   310.078516     0.000000 
  96.931030   309.000000     0.003236   309.831811     0.000000 
  96.948030   312.000000     0.003205   309.644670     0.000000 
  96.965030   325.000000     0.003077   309.516622     0.000000 
  96.982030   339.000000     0.002950   309.447356     0.000000 
  96.999030   333.000000     0.003003   309.436700     0.000000 
  97.016030   329.000000     0.003040   309.484541     0.000000 
  97.033030   324.000000     0.003086   309.590908     0.000000 
  97.050030   315.000000     0.003175   309.755799     0.000000 
  97.067030   318.000000     0.003145   309.979340     0.000000 
  97.084030   325.000000     0.003077   310.261534     0.000000 
  97.101030   313.000000     0.003195   310.602493     0.000000 
  97.118030   297.000000     0.003367   311.002109     0.000000 
  97.135030   319.000000     0.003135   311.460355     0.000000 
  97.152030   340.000000     0.002941   311.976887     0.000000 
  97.169030   334.000000     0.002994   312.551392     0.000000 
  97.186030   307.000000     0.003257   313.183146     0.000000 
  97.203030   301.000000     0.003322   313.896147     0.000000 
  97.220030   302.000000     0.003311   314.683370     0.000000 
  97.237030   303.000000     0.003300   315.480852     0.000000 
  97.254030   318.000000     0.003145   316.330087     0.000000 
  97.271030   292.000000     0.003425   317.228768     0.000000 
  97.288030   306.000000     0.003268   318.173845     0.000000 
  97.305030   351.000000     0.002849   319.161834     0.000000 
  97.322030   322.000000     0.003106   320.188390     0.000000 
  97.339030   344.000000     0.002907   321.248541     0.000000 
  97.356030   376.000000     0.002660   322.336360     0.000000 
  97.373030   324.000000     0.003086   323.445092     0.000000 
  97.390030   320.000000     0.003125   324.566998     0.000000 
  97.407030   355.000000     0.002817   325.693363     0.000000 
  97.424030   318.000000     0.003145   326.814586     0.000000 
  97.441030   358.000000     0.002793   327.920066     0.000000 
  97.458030   342.000000     0.002924   328.998629     0.000000 
  97.475030   369.000000     0.002710   330.038278     0.000000 
  97.492030   364.000000     0.002747   331.027030     0.000000 
  97.509030   351.000000     0.002849   331.952510     0.000000 
  97.526030   348.000000     0.002874   332.361989     0.000000 
  97.543030   357.000000     0.002801   333.128218     0.000000 
  97.560030   347.000000     0.002882   333.798909     0.000000 
  97.577030   329.000000     0.003040   334.365511     0.000000 
  97.594030   330.000000     0.003030   334.822107     0.000000 
  97.611030   342.000000     0.002924   335.164147     0.000000 
  97.628040   372.000000     0.002688   335.390197     0.000000 
  97.645040   357.000000     0.002801   335.553419     0.000000 
  97.662040   350.000000     0.002857   335.549652     0.000000 
  97.679040   345.000000     0.002899   335.435979     0.000000 
  97.696040   336.000000     0.002976   335.218167     0.000000 
  97.713040   369.000000     0.002710   334.902172     0.000000 
  97.730040   361.000000     0.002770   334.495137     0.000000 
  97.747040   323.000000     0.003096   334.003622     0.000000 
  97.764040   354.000000     0.002825   333.434514     0.000000 
  97.781040   357.000000     0.002801   332.793575     0.000000 
  97.798040   338.000000     0.002959   332.086357     0.000000 
  97.815040   329.000000     0.003040   331.317121     0.000000 
  97.832040   330.000000     0.003030   330.489806     0.000000 
  97.849040   347.000000     0.002882   329.607255     0.000000 
  97.866040   370.000000     0.002703   328.672237     0.000000 
  97.883040   369.000000     0.002710   327.686874     0.000000 
  97.900040   352.000000     0.002841   326.653643     0.000000 
  97.917040   345.000000     0.002899   325.574889     0.000000 
  97.934040   346.000000     0.002890   324.453705     0.000000 
  97.951040   344.000000     0.002907   323.293434     0.000000 
  97.968040   371.000000     0.002695   322.098353     0.000000 
  97.985040   361.000000     0.002770   320.873124     0.000000 
  98.002040   332.000000     0.003012   319.623236     0.000000 
  98.019040   332.000000     0.003012   318.354467     0.000000 
  98.036040   354.000000     0.002825   317.073079     0.000000 
  98.053040   350.000000     0.002857   315.953390     0.000000 
  98.070040   338.000000     0.002959   314.666109     0.000000 
  98.087040   352.000000     0.002841   313.385041     0.000000 
  98.104040   346.000000     0.002890   312.115999     0.000000 
  98.121040   335.000000     0.002985   310.864426     0.000000 
  98.138040   326.000000     0.003067   309.635143     0.000000 
  98.155040   314.000000     0.003185   308.432548     0.000000 
  98.172040   309.000000     0.003236   307.260278     0.000000 
  98.189040   334.000000     0.002994   306.121582     0.000000 
  98.206040   344.000000     0.002907   305.018923     0.000000 
  98.223040   323.000000     0.003096   303.954471     0.000000 
  98.240040   355.000000     0.002817   302.929650     0.000000 
  98.257040   303.000000     0.003300   301.945704     0.000000 
  98.274040   312.000000     0.003205   301.003206     0.000000 
  98.291040   318.000000     0.003145   300.102658     0.000000 
  98.308040   315.000000     0.003175   299.243976     0.000000 
  98.325040   297.000000     0.003367   298.427096     0.000000 
  98.342040   307.000000     0.003257   297.651448     0.000000 
  98.359040   311.000000     0.003215   296.916553     0.000000 
  98.376040   338.000000     0.002959   296.221497     0.000000 
  98.393040   356.000000     0.002809   295.496499     0.000000 
  98.410040   323.000000     0.003096   294.878771     0.000000 
  98.427040   321.000000     0.003115   294.297999     0.000000 
  98.444040   304.000000     0.003289   293.752896     0.000000 
  98.461040   315.000000     0.003175   293.242376     0.000000 
  98.478040   310.000000     0.003226   292.765079     0.000000 
  98.495040   355.000000     0.002817   292.319856     0.000000 
  98.512050   307.000000     0.003257   291.905090     0.000000 
  98.529050   303.000000     0.003300   291.520107     0.000000 
  98.546050   331.000000     0.003021   291.163288     0.000000 
  98.563050   288.000000     0.003472   290.833493     0.000000 
  98.580050   310.000000     0.003226   290.529407     0.000000 
  98.597050   321.000000     0.003115   290.249939     0.000000 
  98.614050   300.000000     0.003333   289.993849     0.000000 
  98.631050   339.000000     0.002950   289.760114     0.000000 
  98.648050   338.000000     0.002959   289.547587     0.000000 
  98.665050   290.000000     0.003448   289.355329     0.000000 
  98.682050   316.000000     0.003165   289.182300     0.000000 
  98.699050   293.000000     0.003413   289.027655     0.000000 
  98.716050   313.000000     0.003195   288.997628     0.000000 
  98.733050   299.000000     0.003344   288.877381     0.000000 
  98.750050   323.000000     0.003096   288.773036     0.000000 
  98.767050   306.000000     0.003268   288.683959     0.000000 
  98.784050   300.000000     0.003333   288.669721     0.000000 
  98.801050   311.000000     0.003215   288.609466     0.000000 
  98.818050   301.000000     0.003322   288.562670     0.000000 
  98.835050   289.000000     0.003460   288.528916     0.000000 
  98.852050   309.000000     0.003236   288.507727     0.000000 
  98.869050   308.000000     0.003247   288.498790     0.000000 
  98.886050   295.000000     0.003390   288.501735     0.000000 
  98.903050   305.000000     0.003279   288.516350     0.000000 
  98.920050   298.000000     0.003356   288.542369     0.000000 
  98.937050   313.000000     0.003195   288.579679     0.000000 
  98.954050   324.000000     0.003086   288.628113     0.000000 
  98.971050   305.000000     0.003279   288.687658     0.000000 
  98.988050   302.000000     0.003311   288.758246     0.000000 
  99.005050   311.000000     0.003215   288.839963     0.000000 
  99.022050   313.000000     0.003195   288.932838     0.000000 
  99.039050   334.000000     0.002994   289.037065     0.000000 
  99.056050   342.000000     0.002924   289.152772     0.000000 
  99.073050   304.000000     0.003289   289.280264     0.000000 
  99.090050   301.000000     0.003322   289.419777     0.000000 
  99.107050   322.000000     0.003106   289.571737     0.000000 
  99.124050   334.000000     0.002994   289.736497     0.000000 
  99.141050   340.000000     0.002941   289.914618     0.000000 
  99.158050   348.000000     0.002874   290.106582     0.000000 
  99.175050   336.000000     0.002976   290.313102     0.000000 
  99.192050   325.000000     0.003077   290.420122     0.000000 
  99.209050   322.000000     0.003106   290.658307     0.000000 
  99.226050   311.000000     0.003215   290.913354     0.000000 
  99.243050   329.000000     0.003040   291.190450     0.000000 
  99.260050   324.000000     0.003086   291.482393     0.000000 
  99.277050   320.000000     0.003125   291.794581     0.000000 
  99.294050   322.000000     0.003106   292.128205     0.000000 
  99.311050   308.000000     0.003247   292.484837     0.000000 
  99.328050   309.000000     0.003236   292.865903     0.000000 
  99.345050   328.000000     0.003049   293.273264     0.000000 
  99.362050   358.000000     0.002793   293.708604     0.000000 
  99.379050   307.000000     0.003257   294.174104     0.000000 
  99.396050   348.000000     0.002874   294.671726     0.000000 
  99.413060   347.000000     0.002882   295.204324     0.000000 
  99.430060   348.000000     0.002874   295.773526     0.000000 
  99.447060   373.000000     0.002681   296.382537     0.000000 
  99.464060   345.000000     0.002899   297.033911     0.000000 
  99.481060   366.000000     0.002732   297.730934     0.000000 
  99.498060   345.000000     0.002899   298.476461     0.000000 
  99.515060   331.000000     0.003021   299.274160     0.000000 
  99.532060   376.000000     0.002660   300.127176     0.000000 
  99.549060   368.000000     0.002717   301.039548     0.000000 
  99.566060   360.000000     0.002778   302.014677     0.000000 
  99.583060   341.000000     0.002933   303.056946     0.000000 
  99.600060   373.000000     0.002681   304.169968     0.000000 
  99.617060   365.000000     0.002740   305.389268     0.000000 
  99.634060   381.000000     0.002625   306.656965     0.000000 
  99.651060   384.000000     0.002604   308.008745     0.000000 
  99.668060   400.000000     0.002500   309.448424     0.000000 
  99.685060   370.000000     0.002703   310.981030     0.000000 
  99.702060   378.000000     0.002646   312.610331     0.000000 
  99.719060   371.000000     0.002695   314.341368     0.000000 
  99.736060   422.000000     0.002370   316.177733     0.000000 
  99.753060   381.000000     0.002625   318.124338     0.000000 
  99.770060   388.000000     0.002577   320.184450     0.000000 
  99.787060   390.000000     0.002564   322.362685     0.000000 
  99.804060   382.000000     0.002618   324.661816     0.000000 
  99.821060   394.000000     0.002538   327.085964     0.000000 
  99.838060   402.000000     0.002488   329.637209     0.000000 
  99.855060   406.000000     0.002463   332.318951     0.000000 
  99.872060   409.000000     0.002445   335.132350     0.000000 
  99.889060   409.000000     0.002445   338.079806     0.000000 
  99.906060   424.000000     0.002358   341.161287     0.000000 
  99.923060   430.000000     0.002326   344.377867     0.000000 
  99.940060   433.000000     0.002309   347.776070     0.000000 
  99.957060   448.000000     0.002232   351.259176     0.000000 
  99.974060   451.000000     0.002217   354.871683     0.000000 
  99.991060   471.000000     0.002123   358.610692     0.000000 
 100.008060   474.000000     0.002110   362.470298     0.000000 
 100.025060   462.000000     0.002165   366.444742     0.000000 
 100.042060   483.000000     0.002070   370.525103     0.000000 
 100.059060   459.000000     0.002179   374.735326     0.000000 
 100.076060   466.000000     0.002146   378.996315     0.000000 
 100.093060   497.000000     0.002012   383.327604     0.000000 
 100.110060   510.000000     0.001961   387.712260     0.000000 
 100.127060   528.000000     0.001894   392.131554     0.000000 
 100.144060   542.000000     0.001845   396.563776     0.000000 
 100.161060   555.000000     0.001802   400.984757     0.000000 
 100.178060   566.000000     0.001767   405.368027     0.000000 
 100.195060   614.000000     0.001629   409.684219     0.000000 
 100.212060   595.000000     0.001681   413.902932     0.000000 
 100.229060   588.000000     0.001701   417.990852     0.000000 
 100.246060   603.000000     0.001658   421.915591     0.000000 
 100.263060   597.000000     0.001675   425.642381     0.000000 
 100.280060   619.000000     0.001616   429.139973     0.000000 
 100.297060   643.000000     0.001555   432.375756     0.000000 
 100.314070   639.000000     0.001565   435.325157     0.000000 
 100.331070   628.000000     0.001592   437.958390     0.000000 
 100.348070   626.000000     0.001597   440.259848     0.000000 
 100.365070   650.000000     0.001538   442.213002     0.000000 
 100.382070   631.000000     0.001585   443.811709     0.000000 
 100.399070   638.000000     0.001567   445.050930     0.000000 
 100.416070   615.000000     0.001626   445.936022     0.000000 
 100.433070   686.000000     0.001458   446.472708     0.000000 
 100.450070   646.000000     0.001548   446.675656     0.000000 
 100.467070   662.000000     0.001511   446.558411     0.000000 
 100.484070   649.000000     0.001541   446.141057     0.000000 
 100.501070   648.000000     0.001543   445.440833     0.000000 
 100.518070   610.000000     0.001639   444.478942     0.000000 
 100.535070   615.000000     0.001626   443.241678     0.000000 
 100.552070   610.000000     0.001639   441.809425     0.000000 
 100.569070   624.000000     0.001603   440.165371     0.000000 
 100.586070   571.000000     0.001751   438.324375     0.000000 
 100.603070   587.000000     0.001704   436.296609     0.000000 
 100.620070   582.000000     0.001718   434.093039     0.000000 
 100.637070   583.000000     0.001715   431.720873     0.000000 
 100.654070   556.000000     0.001799   429.188807     0.000000 
 100.671070   514.000000     0.001946   426.503103     0.000000 
 100.688070   532.000000     0.001880   423.672485     0.000000 
 100.705070   546.000000     0.001832   420.704554     0.000000 
 100.722070   491.000000     0.002037   417.610116     0.000000 
 100.739070   515.000000     0.001942   414.399795     0.000000 
 100.756070   541.000000     0.001848   411.087545     0.000000 
 100.773070   487.000000     0.002053   407.687537     0.000000 
 100.790070   510.000000     0.001961   404.216687     0.000000 
 100.807070   495.000000     0.002020   400.692035     0.000000 
 100.824070   459.000000     0.002179   397.132249     0.000000 
 100.841070   476.000000     0.002101   393.555755     0.000000 
 100.858070   442.000000     0.002262   389.981295     0.000000 
 100.875070   441.000000     0.002268   386.427007     0.000000 
 100.892070   446.000000     0.002242   382.910140     0.000000 
 100.909070   429.000000     0.002331   379.447154     0.000000 
 100.926070   443.000000     0.002257   376.052733     0.000000 
 100.943070   451.000000     0.002217   372.779607     0.000000 
 100.960070   425.000000     0.002353   369.561898     0.000000 
 100.977070   424.000000     0.002358   366.380182     0.000000 
 100.994070   412.000000     0.002427   363.381820     0.000000 
 101.011070   391.000000     0.002558   360.505738     0.000000 
 101.028070   368.000000     0.002717   357.757835     0.000000 
 101.045070   357.000000     0.002801   355.144212     0.000000 
 101.062070   348.000000     0.002874   352.668577     0.000000 
 101.079070   368.000000     0.002717   350.335170     0.000000 
 101.096070   382.000000     0.002618   348.146041     0.000000 
 101.113070   355.000000     0.002817   346.104043     0.000000 
 101.130070   347.000000     0.002882   344.210067     0.000000 
 101.147070   362.000000     0.002762   342.466003     0.000000 
 101.164070   355.000000     0.002817   340.872016     0.000000 
 101.181070   394.000000     0.002538   339.429398     0.000000 
 101.198080   396.000000     0.002525   338.137225     0.000000 
 101.215080   361.000000     0.002770   336.997992     0.000000 
 101.232080   339.000000     0.002950   336.010607     0.000000 
 101.249080   357.000000     0.002801   335.175970     0.000000 
 101.266080   367.000000     0.002725   334.493917     0.000000 
 101.283080   349.000000     0.002865   333.965455     0.000000 
 101.300080   310.000000     0.003226   333.590706     0.000000 
 101.317080   333.000000     0.003003   333.375338     0.000000 
 101.334080   346.000000     0.002890   333.311039     0.000000 
 101.351080   342.000000     0.002924   333.403796     0.000000 
 101.368080   376.000000     0.002660   333.654593     0.000000 
 101.385080   353.000000     0.002833   334.065383     0.000000 
 101.402080   308.000000     0.003247   334.637640     0.000000 
 101.419080   391.000000     0.002558   335.373699     0.000000 
 101.436080   362.000000     0.002762   336.275507     0.000000 
 101.453080   356.000000     0.002809   337.345753     0.000000 
 101.470080   371.000000     0.002695   338.586798     0.000000 
 101.487080   379.000000     0.002639   340.001616     0.000000 
 101.504080   336.000000     0.002976   341.592883     0.000000 
 101.521080   348.000000     0.002874   343.363747     0.000000 
 101.538080   365.000000     0.002740   345.317061     0.000000 
 101.555080   386.000000     0.002591   347.455999     0.000000 
 101.572080   382.000000     0.002618   349.783412     0.000000 
 101.589080   375.000000     0.002667   352.316064     0.000000 
 101.606080   373.000000     0.002681   355.086400     0.000000 
 101.623080   362.000000     0.002762   357.996353     0.000000 
 101.640080   409.000000     0.002445   361.105158     0.000000 
 101.657080   395.000000     0.002532   364.414751     0.000000 
 101.674080   418.000000     0.002392   367.926444     0.000000 
 101.691080   401.000000     0.002494   371.641159     0.000000 
 101.708080   408.000000     0.002451   375.559012     0.000000 
 101.725080   424.000000     0.002358   379.679512     0.000000 
 101.742080   440.000000     0.002273   384.001124     0.000000 
 101.759080   419.000000     0.002387   388.521471     0.000000 
 101.776080   426.000000     0.002347   393.236836     0.000000 
 101.793080   462.000000     0.002165   398.142400     0.000000 
 101.810080   466.000000     0.002146   403.231652     0.000000 
 101.827080   456.000000     0.002193   408.496710     0.000000 
 101.844080   448.000000     0.002232   413.927590     0.000000 
 101.861080   472.000000     0.002119   419.512674     0.000000 
 101.878080   484.000000     0.002066   425.237822     0.000000 
 101.895080   471.000000     0.002123   431.087041     0.000000 
 101.912080   482.000000     0.002075   437.041423     0.000000 
 101.929080   495.000000     0.002020   443.080105     0.000000 
 101.946080   493.000000     0.002028   449.179028     0.000000 
 101.963080   517.000000     0.001934   455.312266     0.000000 
 101.980080   504.000000     0.001984   461.268495     0.000000 
 101.997080   517.000000     0.001934   467.382102     0.000000 
 102.014080   550.000000     0.001818   473.436381     0.000000 
 102.031080   589.000000     0.001698   479.396722     0.000000 
 102.048080   598.000000     0.001672   485.226096     0.000000 
 102.065080   601.000000     0.001664   490.887518     0.000000 
 102.082080   613.000000     0.001631   496.342545     0.000000 
 102.099090   658.000000     0.001520   501.556900     0.000000 
 102.116090   617.000000     0.001621   506.486938     0.000000 
 102.133090   597.000000     0.001675   511.100747     0.000000 
 102.150090   629.000000     0.001590   515.364440     0.000000 
 102.167090   647.000000     0.001546   519.247762     0.000000 
 102.184090   658.000000     0.001520   522.723117     0.000000 
 102.201090   668.000000     0.001497   525.767533     0.000000 
 102.218090   684.000000     0.001462   528.362033     0.000000 
 102.235090   703.000000     0.001422   530.492900     0.000000 
 102.252090   683.000000     0.001464   532.151317     0.000000 
 102.269090   670.000000     0.001493   533.333829     0.000000 
 102.286090   708.000000     0.001412   534.042071     0.000000 
 102.303090   686.000000     0.001458   534.282437     0.000000 
 102.320090   679.000000     0.001473   534.065802     0.000000 
 102.337090   751.000000     0.001332   533.406559     0.000000 
 102.354090   676.000000     0.001479   532.322275     0.000000 
 102.371090   658.000000     0.001520   530.832439     0.000000 
 102.388090   719.000000     0.001391   528.958108     0.000000 
 102.405090   625.000000     0.001600   526.720716     0.000000 
 102.422090   674.000000     0.001484   524.141817     0.000000 
 102.439090   652.000000     0.001534   521.242212     0.000000 
 102.456090   677.000000     0.001477   518.041887     0.000000 
 102.473090   642.000000     0.001558   514.559539     0.000000 
 102.490090   625.000000     0.001600   510.812774     0.000000 
 102.507090   571.000000     0.001751   506.817955     0.000000 
 102.524090   646.000000     0.001548   502.590660     0.000000 
 102.541090   589.000000     0.001698   498.145695     0.000000 
 102.558090   609.000000     0.001642   493.497962     0.000000 
 102.575090   615.000000     0.001626   488.661694     0.000000 
 102.592090   595.000000     0.001681   483.652374     0.000000 
 102.609090   612.000000     0.001634   478.485754     0.000000 
 102.626090   585.000000     0.001709   472.896734     0.000000 
 102.643090   613.000000     0.001631   467.480716     0.000000 
 102.660090   578.000000     0.001730   461.991264     0.000000 
 102.677090   565.000000     0.001770   456.377113     0.000000 
 102.694090   592.000000     0.001689   450.700966     0.000000 
 102.711090   588.000000     0.001701   444.984116     0.000000 
 102.728090   575.000000     0.001739   439.248514     0.000000 
 102.745090   568.000000     0.001761   433.515514     0.000000 
 102.762090   582.000000     0.001718   427.806361     0.000000 
 102.779090   533.000000     0.001876   422.141026     0.000000 
 102.796090   503.000000     0.001988   416.538667     0.000000 
 102.813090   510.000000     0.001961   411.016672     0.000000 
 102.830090   534.000000     0.001873   405.591122     0.000000 
 102.847090   519.000000     0.001927   400.276092     0.000000 
 102.864090   490.000000     0.002041   395.084101     0.000000 
 102.881090   449.000000     0.002227   390.025665     0.000000 
 102.898090   456.000000     0.002193   385.109714     0.000000 
 102.915090   475.000000     0.002105   380.343352     0.000000 
 102.932090   454.000000     0.002203   375.732210     0.000000 
 102.949090   472.000000     0.002119   371.280372     0.000000 
 102.966090   469.000000     0.002132   366.990640     0.000000 
 102.983090   486.000000     0.002058   362.864570     0.000000 
 103.000100   475.000000     0.002105   358.900380     0.000000 
 103.017100   446.000000     0.002242   355.102260     0.000000 
 103.034100   436.000000     0.002294   351.466546     0.000000 
 103.051100   435.000000     0.002299   347.991210     0.000000 
 103.068100   433.000000     0.002309   344.673612     0.000000 
 103.085100   431.000000     0.002320   341.510584     0.000000 
 103.102100   450.000000     0.002222   338.498498     0.000000 
 103.119100   442.000000     0.002262   335.801358     0.000000 
 103.136100   449.000000     0.002227   333.079413     0.000000 
 103.153100   439.000000     0.002278   330.524154     0.000000 
 103.170100   423.000000     0.002364   328.073822     0.000000 
 103.187100   422.000000     0.002370   325.752067     0.000000 
 103.204100   391.000000     0.002558   323.553908     0.000000 
 103.221100   423.000000     0.002364   321.474360     0.000000 
 103.238100   385.000000     0.002597   319.477676     0.000000 
 103.255100   369.000000     0.002710   317.620325     0.000000 
 103.272100   395.000000     0.002532   315.866495     0.000000 
 103.289100   381.000000     0.002625   314.211281     0.000000 
 103.306100   390.000000     0.002564   312.649791     0.000000 
 103.323100   384.000000     0.002604   311.177293     0.000000 
 103.340100   378.000000     0.002646   309.789106     0.000000 
 103.357100   369.000000     0.002710   308.480734     0.000000 
 103.374100   359.000000     0.002786   307.247760     0.000000 
 103.391100   369.000000     0.002710   306.085973     0.000000 
 103.408100   389.000000     0.002571   304.991255     0.000000 
 103.425100   372.000000     0.002688   303.959710     0.000000 
 103.442100   402.000000     0.002488   302.987547     0.000000 
 103.459100   366.000000     0.002732   302.071199     0.000000 
 103.476100   364.000000     0.002747   301.207215     0.000000 
 103.493100   377.000000     0.002653   300.392364     0.000000 
 103.510100   359.000000     0.002786   299.623537     0.000000 
 103.527100   381.000000     0.002625   298.897836     0.000000 
 103.544100   352.000000     0.002841   298.212484     0.000000 
 103.561100   340.000000     0.002941   297.564907     0.000000 
 103.578100   354.000000     0.002825   296.952649     0.000000 
 103.595100   347.000000     0.002882   296.373441     0.000000 
 103.612100   354.000000     0.002825   295.825127     0.000000 
 103.629100   338.000000     0.002959   295.305725     0.000000 
 103.646100   330.000000     0.003030   294.813356     0.000000 
 103.663100   344.000000     0.002907   294.346301     0.000000 
 103.680100   342.000000     0.002924   293.902933     0.000000 
 103.697100   348.000000     0.002874   293.481770     0.000000 
 103.714100   358.000000     0.002793   292.992796     0.000000 
 103.731100   350.000000     0.002857   292.612364     0.000000 
 103.748100   312.000000     0.003205   292.250265     0.000000 
 103.765100   301.000000     0.003322   291.905415     0.000000 
 103.782100   330.000000     0.003030   291.576792     0.000000 
 103.799100   337.000000     0.002967   291.263473     0.000000 
 103.816100   335.000000     0.002985   290.964589     0.000000 
 103.833100   336.000000     0.002976   290.679357     0.000000 
 103.850100   314.000000     0.003185   290.407038     0.000000 
 103.867100   321.000000     0.003115   290.146971     0.000000 
 103.884110   314.000000     0.003185   289.898386     0.000000 
 103.901110   301.000000     0.003322   289.768254     0.000000 
 103.918110   301.000000     0.003322   289.541732     0.000000 
 103.935110   308.000000     0.003247   289.325267     0.000000 
 103.952110   327.000000     0.003058   289.118407     0.000000 
 103.969110   323.000000     0.003096   288.920747     0.000000 
 103.986110   321.000000     0.003115   288.731904     0.000000 
 104.003110   329.000000     0.003040   288.551533     0.000000 
 104.020110   294.000000     0.003401   288.379306     0.000000 
 104.037110   286.000000     0.003497   288.214929     0.000000 
 104.054110   303.000000     0.003300   288.058120     0.000000 
 104.071110   305.000000     0.003279   287.908628     0.000000 
 104.088110   306.000000     0.003268   287.766210     0.000000 
 104.105110   318.000000     0.003145   287.630652     0.000000 
 104.122110   308.000000     0.003247   287.501743     0.000000 
 104.139110   309.000000     0.003236   287.379300     0.000000 
 104.156110   339.000000     0.002950   287.263139     0.000000 
 104.173110   316.000000     0.003165   287.153103     0.000000 
 104.190110   309.000000     0.003236   287.049033     0.000000 
 104.207110   299.000000     0.003344   286.950794     0.000000 
 104.224110   307.000000     0.003257   286.858247     0.000000 
 104.241110   312.000000     0.003205   286.771278     0.000000 
 104.258110   309.000000     0.003236   286.689765     0.000000 
 104.275110   322.000000     0.003106   286.613611     0.000000 
 104.292110   306.000000     0.003268   286.542712     0.000000 
 104.309110   314.000000     0.003185   286.476986     0.000000 
 104.326110   310.000000     0.003226   286.416341     0.000000 
 104.343110   291.000000     0.003436   286.360711     0.000000 
 104.360110   286.000000     0.003497   286.310019     0.000000 
 104.377110   320.000000     0.003125   286.264211     0.000000 
 104.394110   286.000000     0.003497   286.223221     0.000000 
 104.411110   280.000000     0.003571   286.187009     0.000000 
 104.428110   290.000000     0.003448   286.155520     0.000000 
 104.445110   309.000000     0.003236   286.128726     0.000000 
 104.462110   292.000000     0.003425   286.106584     0.000000 
 104.479110   303.000000     0.003300   286.089077     0.000000 
 104.496110   307.000000     0.003257   286.076173     0.000000 
 104.513110   299.000000     0.003344   286.067868     0.000000 
 104.530110   296.000000     0.003378   286.064139     0.000000 
 104.547110   308.000000     0.003247   286.064995     0.000000 
 104.564110   307.000000     0.003257   286.070425     0.000000 
 104.581110   305.000000     0.003279   286.080448     0.000000 
 104.598110   288.000000     0.003472   286.095066     0.000000 
 104.615110   288.000000     0.003472   286.114312     0.000000 
 104.632110   290.000000     0.003448   286.138198     0.000000 
 104.649110   315.000000     0.003175   286.166773     0.000000 
 104.666110   320.000000     0.003125   286.200062     0.000000 
 104.683110   322.000000     0.003106   286.238128     0.000000 
 104.700110   281.000000     0.003559   286.281011     0.000000 
 104.717110   278.000000     0.003597   286.328793     0.000000 
 104.734110   315.000000     0.003175   286.381528     0.000000 
 104.751110   321.000000     0.003115   286.439319     0.000000 
 104.768110   310.000000     0.003226   286.320524     0.000000 
 104.785120   287.000000     0.003484   286.389324     0.000000 
 104.802120   297.000000     0.003367   286.463431     0.000000 
 104.819120   323.000000     0.003096   286.543034     0.000000 
 104.836120   323.000000     0.003096   286.628252     0.000000 
 104.853120   318.000000     0.003145   286.719266     0.000000 
 104.870120   319.000000     0.003135   286.816225     0.000000 
 104.887120   301.000000     0.003322   286.919347     0.000000 
 104.904120   295.000000     0.003390   287.028812     0.000000 
 104.921120   298.000000     0.003356   287.144882     0.000000 
 104.938120   289.000000     0.003460   287.267778     0.000000 
 104.955120   279.000000     0.003584   287.428680     0.000000 
 104.972120   307.000000     0.003257   287.566206     0.000000 
 104.989120   305.000000     0.003279   287.711504     0.000000 
 105.006120   309.000000     0.003236   287.864899     0.000000 
 105.023120   319.000000     0.003135   288.026827     0.000000 
 105.040120   340.000000     0.002941   288.197674     0.000000 
 105.057120   311.000000     0.003215   288.377957     0.000000 
 105.074120   307.000000     0.003257   288.568136     0.000000 
 105.091120   310.000000     0.003226   288.768817     0.000000 
 105.108120   283.000000     0.003534   288.980546     0.000000 
 105.125120   304.000000     0.003289   289.204033     0.000000 
 105.142120   314.000000     0.003185   289.439918     0.000000 
 105.159120   305.000000     0.003279   289.689030     0.000000 
 105.176120   324.000000     0.003086   289.952115     0.000000 
 105.193120   302.000000     0.003311   290.230133     0.000000 
 105.210120   323.000000     0.003096   290.523947     0.000000 
 105.227120   297.000000     0.003367   290.834665     0.000000 
 105.244120   315.000000     0.003175   291.163275     0.000000 
 105.261120   296.000000     0.003378   291.511043     0.000000 
 105.278120   305.000000     0.003279   291.879093     0.000000 
 105.295120   298.000000     0.003356   292.268861     0.000000 
 105.312120   320.000000     0.003125   292.681614     0.000000 
 105.329120   318.000000     0.003145   293.118964     0.000000 
 105.346120   315.000000     0.003175   293.630475     0.000000 
 105.363120   306.000000     0.003268   294.121777     0.000000 
 105.380120   306.000000     0.003268   294.642441     0.000000 
 105.397120   320.000000     0.003125   295.194447     0.000000 
 105.414120   313.000000     0.003195   295.779488     0.000000 
 105.431120   323.000000     0.003096   296.117262     0.000000 
 105.448120   332.000000     0.003012   296.775414     0.000000 
 105.465120   341.000000     0.002933   297.506151     0.000000 
 105.482120   315.000000     0.003175   298.245005     0.000000 
 105.499120   321.000000     0.003115   299.027607     0.000000 
 105.516120   322.000000     0.003106   299.855966     0.000000 
 105.533120   328.000000     0.003049   300.732686     0.000000 
 105.550120   325.000000     0.003077   301.659828     0.000000 
 105.567120   325.000000     0.003077   302.640085     0.000000 
 105.584120   306.000000     0.003268   303.675526     0.000000 
 105.601120   324.000000     0.003086   304.838115     0.000000 
 105.618120   334.000000     0.002994   305.991549     0.000000 
 105.635120   306.000000     0.003268   307.207672     0.000000 
 105.652120   344.000000     0.002907   308.488420     0.000000 
 105.669120   338.000000     0.002959   309.836460     0.000000 
 105.686130   337.000000     0.002967   311.254419     0.000000 
 105.703130   337.000000     0.002967   312.743167     0.000000 
 105.720130   348.000000     0.002874   314.305052     0.000000 
 105.737130   314.000000     0.003185   315.942389     0.000000 
 105.754130   333.000000     0.003003   317.656404     0.000000 
 105.771130   326.000000     0.003067   319.449097     0.000000 
 105.788130   308.000000     0.003247   321.321290     0.000000 
 105.805130   320.000000     0.003125   323.274563     0.000000 
 105.822130   335.000000     0.002985   325.309227     0.000000 
 105.839130   336.000000     0.002976   327.426320     0.000000 
 105.856130   320.000000     0.003125   329.721020     0.000000 
 105.873130   325.000000     0.003077   332.002824     0.000000 
 105.890130   329.000000     0.003040   334.365984     0.000000 
 105.907130   330.000000     0.003030   336.783372     0.000000 
 105.924130   345.000000     0.002899   339.306259     0.000000 
 105.941130   341.000000     0.002933   341.906322     0.000000 
 105.958130   350.000000     0.002857   344.580367     0.000000 
 105.975130   369.000000     0.002710   347.325446     0.000000 
 105.992130   344.000000     0.002907   350.136977     0.000000 
 106.009130   338.000000     0.002959   353.010385     0.000000 
 106.026130   366.000000     0.002732   355.939432     0.000000 
 106.043130   367.000000     0.002725   358.917601     0.000000 
 106.060130   354.000000     0.002825   361.936733     0.000000 
 106.077130   349.000000     0.002865   364.988059     0.000000 
 106.094130   361.000000     0.002770   368.061270     0.000000 
 106.111130   389.000000     0.002571   371.145116     0.000000 
 106.128130   355.000000     0.002817   374.227026     0.000000 
 106.145130   363.000000     0.002755   377.372709     0.000000 
 106.162130   396.000000     0.002525   380.408528     0.000000 
 106.179130   392.000000     0.002551   383.397705     0.000000 
 106.196130   373.000000     0.002681   386.323805     0.000000 
 106.213130   395.000000     0.002532   389.168887     0.000000 
 106.230130   381.000000     0.002625   391.915656     0.000000 
 106.247130   399.000000     0.002506   394.545442     0.000000 
 106.264130   380.000000     0.002632   397.041376     0.000000 
 106.281130   396.000000     0.002525   399.385525     0.000000 
 106.298130   427.000000     0.002342   401.563025     0.000000 
 106.315130   443.000000     0.002257   403.558362     0.000000 
 106.332130   394.000000     0.002538   405.360295     0.000000 
 106.349130   426.000000     0.002347   406.957310     0.000000 
 106.366130   416.000000     0.002404   408.343055     0.000000 
 106.383130   390.000000     0.002564   409.511096     0.000000 
 106.400130   421.000000     0.002375   410.460544     0.000000 
 106.417130   389.000000     0.002571   411.190313     0.000000 
 106.434130   380.000000     0.002632   411.704663     0.000000 
 106.451130   431.000000     0.002320   412.007233     0.000000 
 106.468130   396.000000     0.002525   412.106280     0.000000 
 106.485130   361.000000     0.002770   412.008826     0.000000 
 106.502130   418.000000     0.002392   411.725462     0.000000 
 106.519130   394.000000     0.002538   411.303664     0.000000 
 106.536130   400.000000     0.002500   410.677179     0.000000 
 106.553130   400.000000     0.002500   409.893444     0.000000 
 106.570140   401.000000     0.002494   408.962232     0.000000 
 106.587140   378.000000     0.002646   407.803791     0.000000 
 106.604140   400.000000     0.002500   406.603656     0.000000 
 106.621140   386.000000     0.002591   405.279094     0.000000 
 106.638140   392.000000     0.002551   403.837054     0.000000 
 106.655140   401.000000     0.002494   402.282149     0.000000 
 106.672140   400.000000     0.002500   400.620011     0.000000 
 106.689140   374.000000     0.002674   398.854460     0.000000 
 106.706140   377.000000     0.002653   396.990657     0.000000 
 106.723140   399.000000     0.002506   395.032533     0.000000 
 106.740140   364.000000     0.002747   392.985685     0.000000 
 106.757140   353.000000     0.002833   390.855007     0.000000 
 106.774140   377.000000     0.002653   388.647238     0.000000 
 106.791140   381.000000     0.002625   386.368774     0.000000 
 106.808140   399.000000     0.002506   384.027792     0.000000 
 106.825140   378.000000     0.002646   381.632300     0.000000 
 106.842140   357.000000     0.002801   379.191756     0.000000 
 106.859140   367.000000     0.002725   376.715460     0.000000 
 106.876140   353.000000     0.002833   374.213642     0.000000 
 106.893140   358.000000     0.002793   371.696296     0.000000 
 106.910140   346.000000     0.002890   369.173737     0.000000 
 106.927140   343.000000     0.002915   366.655962     0.000000 
 106.944140   357.000000     0.002801   364.152704     0.000000 
 106.961140   335.000000     0.002985   361.673348     0.000000 
 106.978140   336.000000     0.002976   359.230953     0.000000 
 106.995140   344.000000     0.002907   356.825025     0.000000 
 107.012140   339.000000     0.002950   354.467217     0.000000 
 107.029140   305.000000     0.003279   352.164585     0.000000 
 107.046140   327.000000     0.003058   349.922879     0.000000 
 107.063140   309.000000     0.003236   347.747825     0.000000 
 107.080140   341.000000     0.002933   345.643746     0.000000 
 107.097140   350.000000     0.002857   343.615115     0.000000 
 107.114140   356.000000     0.002809   341.664984     0.000000 
 107.131140   364.000000     0.002747   339.796731     0.000000 
 107.148140   329.000000     0.003040   338.012347     0.000000 
 107.165140   329.000000     0.003040   336.314297     0.000000 
 107.182140   297.000000     0.003367   334.703730     0.000000 
 107.199140   307.000000     0.003257   333.182387     0.000000 
 107.216140   328.000000     0.003049   331.750777     0.000000 
 107.233140   359.000000     0.002786   330.410089     0.000000 
 107.250140   335.000000     0.002985   329.160372     0.000000 
 107.267140   330.000000     0.003030   328.002408     0.000000 
 107.284140   323.000000     0.003096   326.935938     0.000000 
 107.301140   329.000000     0.003040   325.967509     0.000000 
 107.318140   354.000000     0.002825   325.084581     0.000000 
 107.335140   309.000000     0.003236   324.293508     0.000000 
 107.352140   327.000000     0.003058   323.593743     0.000000 
 107.369140   296.000000     0.003378   322.985489     0.000000 
 107.386140   322.000000     0.003106   322.468177     0.000000 
 107.403140   342.000000     0.002924   322.041953     0.000000 
 107.420140   312.000000     0.003205   321.706274     0.000000 
 107.437140   320.000000     0.003125   321.461271     0.000000 
 107.454140   341.000000     0.002933   321.306457     0.000000 
 107.471150   350.000000     0.002857   321.241959     0.000000 
 107.488150   338.000000     0.002959   321.267447     0.000000 
 107.505150   330.000000     0.003030   321.383002     0.000000 
 107.522150   326.000000     0.003067   321.588299     0.000000 
 107.539150   316.000000     0.003165   321.883498     0.000000 
 107.556150   320.000000     0.003125   322.268340     0.000000 
 107.573150   319.000000     0.003135   322.742980     0.000000 
 107.590150   339.000000     0.002950   323.307202     0.000000 
 107.607150   327.000000     0.003058   323.961131     0.000000 
 107.624150   316.000000     0.003165   324.704561     0.000000 
 107.641150   341.000000     0.002933   325.537547     0.000000 
 107.658150   333.000000     0.003003   326.459843     0.000000 
 107.675150   335.000000     0.002985   327.471388     0.000000 
 107.692150   307.000000     0.003257   328.571839     0.000000 
 107.709150   324.000000     0.003086   329.760954     0.000000 
 107.726150   324.000000     0.003086   331.038223     0.000000 
 107.743150   303.000000     0.003300   332.403152     0.000000 
 107.760150   318.000000     0.003145   333.854973     0.000000 
 107.777150   329.000000     0.003040   335.392853     0.000000 
 107.794150   340.000000     0.002941   337.015663     0.000000 
 107.811150   343.000000     0.002915   338.722123     0.000000 
 107.828150   343.000000     0.002915   340.538348     0.000000 
 107.845150   345.000000     0.002899   342.407065     0.000000 
 107.862150   335.000000     0.002985   344.353718     0.000000 
 107.879150   346.000000     0.002890   346.375717     0.000000 
 107.896150   367.000000     0.002725   348.470016     0.000000 
 107.913150   353.000000     0.002833   350.633109     0.000000 
 107.930150   344.000000     0.002907   352.860944     0.000000 
 107.947150   330.000000     0.003030   355.148901     0.000000 
 107.964150   343.000000     0.002915   357.491702     0.000000 
 107.981150   336.000000     0.002976   359.883393     0.000000 
 107.998150   318.000000     0.003145   362.317247     0.000000 
 108.015150   368.000000     0.002717   364.785775     0.000000 
 108.032150   343.000000     0.002915   367.280609     0.000000 
 108.049150   329.000000     0.003040   369.792575     0.000000 
 108.066150   349.000000     0.002865   372.311551     0.000000 
 108.083150   366.000000     0.002732   374.826645     0.000000 
 108.100150   371.000000     0.002695   377.326022     0.000000 
 108.117150   345.000000     0.002899   379.797220     0.000000 
 108.134150   363.000000     0.002755   382.226965     0.000000 
 108.151150   358.000000     0.002793   384.601637     0.000000 
 108.168150   389.000000     0.002571   386.907076     0.000000 
 108.185150   370.000000     0.002703   389.129231     0.000000 
 108.202150   329.000000     0.003040   391.253919     0.000000 
 108.219150   369.000000     0.002710   393.267657     0.000000 
 108.236150   413.000000     0.002421   395.157351     0.000000 
 108.253150   352.000000     0.002841   396.911253     0.000000 
 108.270150   373.000000     0.002681   398.518551     0.000000 
 108.287150   366.000000     0.002732   399.980448     0.000000 
 108.304150   412.000000     0.002427   401.269287     0.000000 
 108.321150   412.000000     0.002427   402.389964     0.000000 
 108.338150   419.000000     0.002387   403.338910     0.000000 
 108.355160   382.000000     0.002618   404.115389     0.000000 
 108.372160   378.000000     0.002646   404.718867     0.000000 
 108.389160   387.000000     0.002584   405.152469     0.000000 
 108.406160   382.000000     0.002618   405.419947     0.000000 
 108.423160   408.000000     0.002451   405.526807     0.000000 
 108.440160   397.000000     0.002519   405.479145     0.000000 
 108.457160   400.000000     0.002500   405.284158     0.000000 
 108.474160   365.000000     0.002740   404.949217     0.000000 
 108.491160   377.000000     0.002653   404.481605     0.000000 
 108.508160   366.000000     0.002732   403.888621     0.000000 
 108.525160   377.000000     0.002653   403.177327     0.000000 
 108.542160   382.000000     0.002618   402.353927     0.000000 
 108.559160   357.000000     0.002801   401.424273     0.000000 
 108.576160   362.000000     0.002762   400.393259     0.000000 
 108.593160   366.000000     0.002732   399.265378     0.000000 
 108.610160   373.000000     0.002681   398.044275     0.000000 
 108.627160   383.000000     0.002611   396.733355     0.000000 
 108.644160   374.000000     0.002674   395.335451     0.000000 
 108.661160   360.000000     0.002778   393.853437     0.000000 
 108.678160   359.000000     0.002786   392.289966     0.000000 
 108.695160   365.000000     0.002740   390.648044     0.000000 
 108.712160   360.000000     0.002778   388.930782     0.000000 
 108.729160   375.000000     0.002667   387.141890     0.000000 
 108.746160   364.000000     0.002747   385.285404     0.000000 
 108.763160   352.000000     0.002841   383.366078     0.000000 
 108.780160   339.000000     0.002950   381.389073     0.000000 
 108.797160   336.000000     0.002976   379.413405     0.000000 
 108.814160   370.000000     0.002703   377.338986     0.000000 
 108.831160   369.000000     0.002710   375.225627     0.000000 
 108.848160   334.000000     0.002994   373.080244     0.000000 
 108.865160   361.000000     0.002770   370.910023     0.000000 
 108.882160   366.000000     0.002732   368.695525     0.000000 
 108.899160   352.000000     0.002841   366.497343     0.000000 
 108.916160   337.000000     0.002967   364.295812     0.000000 
 108.933160   345.000000     0.002899   362.097779     0.000000 
 108.950160   350.000000     0.002857   359.909793     0.000000 
 108.967160   363.000000     0.002755   357.738008     0.000000 
 108.984160   385.000000     0.002597   355.588192     0.000000 
 109.001160   366.000000     0.002732   353.465601     0.000000 
 109.018160   360.000000     0.002778   351.375062     0.000000 
 109.035160   344.000000     0.002907   349.320829     0.000000 
 109.052160   331.000000     0.003021   347.306722     0.000000 
 109.069160   356.000000     0.002809   345.335972     0.000000 
 109.086160   330.000000     0.003030   343.411407     0.000000 
 109.103160   344.000000     0.002907   341.535281     0.000000 
 109.120160   328.000000     0.003049   339.709500     0.000000 
 109.137160   330.000000     0.003030   337.935435     0.000000 
 109.154160   317.000000     0.003155   336.125912     0.000000 
 109.171160   361.000000     0.002770   334.458436     0.000000 
 109.188160   329.000000     0.003040   332.844798     0.000000 
 109.205160   353.000000     0.002833   331.313542     0.000000 
 109.222160   313.000000     0.003195   329.807558     0.000000 
 109.239160   326.000000     0.003067   328.354865     0.000000 
 109.256170   344.000000     0.002907   326.954146     0.000000 
 109.273170   335.000000     0.002985   325.606287     0.000000 
 109.290170   321.000000     0.003115   324.309693     0.000000 
 109.307170   345.000000     0.002899   323.063404     0.000000 
 109.324170   308.000000     0.003247   321.866514     0.000000 
 109.341170   323.000000     0.003096   320.717960     0.000000 
 109.358170   341.000000     0.002933   319.616761     0.000000 
 109.375170   335.000000     0.002985   318.561812     0.000000 
 109.392170   313.000000     0.003195   317.552100     0.000000 
 109.409170   316.000000     0.003165   316.586511     0.000000 
 109.426170   328.000000     0.003049   315.664023     0.000000 
 109.443170   322.000000     0.003106   314.783519     0.000000 
 109.460170   324.000000     0.003086   313.943975     0.000000 
 109.477170   324.000000     0.003086   313.144273     0.000000 
 109.494170   331.000000     0.003021   312.383381     0.000000 
 109.511170   328.000000     0.003049   311.660179     0.000000 
 109.528170   328.000000     0.003049   310.973623     0.000000 
 109.545170   333.000000     0.003003   310.322590     0.000000 
 109.562170   325.000000     0.003077   309.706028     0.000000 
 109.579170   346.000000     0.002890   309.122815     0.000000 
 109.596170   342.000000     0.002924   308.571894     0.000000 
 109.613170   330.000000     0.003030   308.052155     0.000000 
 109.630170   323.000000     0.003096   307.562549     0.000000 
 109.647170   342.000000     0.002924   307.101984     0.000000 
 109.664170   322.000000     0.003106   306.669436     0.000000 
 109.681170   322.000000     0.003106   306.263844     0.000000 
 109.698170   330.000000     0.003030   305.884219     0.000000 
 109.715170   333.000000     0.003003   305.529544     0.000000 
 109.732170   344.000000     0.002907   305.198876     0.000000 
 109.749170   350.000000     0.002857   304.891256     0.000000 
 109.766170   353.000000     0.002833   304.605792     0.000000 
 109.783170   361.000000     0.002770   304.341591     0.000000 
 109.800170   363.000000     0.002755   304.097823     0.000000 
 109.817170   354.000000     0.002825   303.873661     0.000000 
 109.834170   342.000000     0.002924   303.668345     0.000000 
 109.851170   350.000000     0.002857   303.481117     0.000000 
 109.868170   351.000000     0.002849   303.311286     0.000000 
 109.885170   340.000000     0.002941   303.158168     0.000000 
 109.902170   334.000000     0.002994   303.021139     0.000000 
 109.919170   321.000000     0.003115   302.899587     0.000000 
 109.936170   321.000000     0.003115   302.792958     0.000000 
 109.953170   341.000000     0.002933   302.700709     0.000000 
 109.970170   337.000000     0.002967   302.622352     0.000000 
 109.987170   349.000000     0.002865   302.557412     0.000000 
 110.004170   341.000000     0.002933   302.505463     0.000000 
 110.021170   327.000000     0.003058   302.466098     0.000000 
 110.038170   338.000000     0.002959   302.438952     0.000000 
 110.055170   331.000000     0.003021   302.423678     0.000000 
 110.072170   331.000000     0.003021   302.419971     0.000000 
 110.089170   323.000000     0.003096   302.427543     0.000000 
 110.106170   332.000000     0.003012   302.446146     0.000000 
 110.123170   345.000000     0.002899   302.475550     0.000000 
 110.140170   327.000000     0.003058   302.515561     0.000000 
 110.157180   319.000000     0.003135   302.566037     0.000000 
 110.174180   332.000000     0.003012   302.626779     0.000000 
 110.191180   344.000000     0.002907   302.697694     0.000000 
 110.208180   337.000000     0.002967   302.778696     0.000000 
 110.225180   335.000000     0.002985   302.869720     0.000000 
 110.242180   347.000000     0.002882   302.970732     0.000000 
 110.259180   326.000000     0.003067   303.081724     0.000000 
 110.276180   341.000000     0.002933   303.202717     0.000000 
 110.293180   342.000000     0.002924   303.333758     0.000000 
 110.310180   335.000000     0.002985   303.474927     0.000000 
 110.327180   346.000000     0.002890   303.626330     0.000000 
 110.344180   331.000000     0.003021   303.788106     0.000000 
 110.361180   363.000000     0.002755   303.960423     0.000000 
 110.378180   361.000000     0.002770   304.143483     0.000000 
 110.395180   375.000000     0.002667   304.337523     0.000000 
 110.412180   365.000000     0.002740   304.542812     0.000000 
 110.429180   340.000000     0.002941   304.759656     0.000000 
 110.446180   336.000000     0.002976   304.988399     0.000000 
 110.463180   398.000000     0.002513   305.229425     0.000000 
 110.480180   348.000000     0.002874   305.483153     0.000000 
 110.497180   366.000000     0.002732   305.750052     0.000000 
 110.514180   344.000000     0.002907   306.030626     0.000000 
 110.531180   349.000000     0.002865   306.325432     0.000000 
 110.548180   363.000000     0.002755   306.635065     0.000000 
 110.565180   371.000000     0.002695   306.960178     0.000000 
 110.582180   360.000000     0.002778   307.301461     0.000000 
 110.599180   322.000000     0.003106   307.659671     0.000000 
 110.616180   337.000000     0.002967   308.035600     0.000000 
 110.633180   361.000000     0.002770   308.430112     0.000000 
 110.650180   362.000000     0.002762   308.844106     0.000000 
 110.667180   369.000000     0.002710   309.278559     0.000000 
 110.684180   354.000000     0.002825   309.734482     0.000000 
 110.701180   340.000000     0.002941   310.212965     0.000000 
 110.718180   349.000000     0.002865   310.715136     0.000000 
 110.735180   363.000000     0.002755   311.242201     0.000000 
 110.752180   373.000000     0.002681   311.795402     0.000000 
 110.769180   360.000000     0.002778   312.376062     0.000000 
 110.786180   357.000000     0.002801   312.985535     0.000000 
 110.803180   351.000000     0.002849   313.625259     0.000000 
 110.820180   336.000000     0.002976   314.296692     0.000000 
 110.837180   343.000000     0.002915   315.001382     0.000000 
 110.854180   362.000000     0.002762   315.740886     0.000000 
 110.871180   370.000000     0.002703   316.516849     0.000000 
 110.888180   340.000000     0.002941   317.330913     0.000000 
 110.905180   355.000000     0.002817   318.184809     0.000000 
 110.922180   345.000000     0.002899   319.080251     0.000000 
 110.939180   355.000000     0.002817   320.019034     0.000000 
 110.956180   373.000000     0.002681   321.002923     0.000000 
 110.973180   345.000000     0.002899   322.033758     0.000000 
 110.990180   354.000000     0.002825   323.113332     0.000000 
 111.007180   345.000000     0.002899   324.243501     0.000000 
 111.024180   336.000000     0.002976   325.426055     0.000000 
 111.041190   331.000000     0.003021   326.663583     0.000000 
 111.058190   362.000000     0.002762   327.956382     0.000000 
 111.075190   372.000000     0.002688   329.306967     0.000000 
 111.092190   365.000000     0.002740   330.717009     0.000000 
 111.109190   318.000000     0.003145   332.188225     0.000000 
 111.126190   360.000000     0.002778   333.722173     0.000000 
 111.143190   337.000000     0.002967   335.320437     0.000000 
 111.160190   375.000000     0.002667   336.984412     0.000000 
 111.177190   373.000000     0.002681   338.715500     0.000000 
 111.194190   347.000000     0.002882   340.514882     0.000000 
 111.211190   345.000000     0.002899   342.383724     0.000000 
 111.228190   331.000000     0.003021   344.280364     0.000000 
 111.245190   358.000000     0.002793   346.290970     0.000000 
 111.262190   371.000000     0.002695   348.373381     0.000000 
 111.279190   357.000000     0.002801   350.528088     0.000000 
 111.296190   388.000000     0.002577   352.755253     0.000000 
 111.313190   398.000000     0.002513   355.054916     0.000000 
 111.330190   406.000000     0.002463   357.426739     0.000000 
 111.347190   367.000000     0.002725   359.870214     0.000000 
 111.364190   384.000000     0.002604   362.384404     0.000000 
 111.381190   348.000000     0.002874   364.968139     0.000000 
 111.398190   374.000000     0.002674   367.524077     0.000000 
 111.415190   368.000000     0.002717   370.242006     0.000000 
 111.432190   402.000000     0.002488   373.023359     0.000000 
 111.449190   419.000000     0.002387   375.865237     0.000000 
 111.466190   429.000000     0.002331   378.764128     0.000000 
 111.483190   403.000000     0.002481   381.716029     0.000000 
 111.500190   413.000000     0.002421   384.716258     0.000000 
 111.517190   421.000000     0.002375   387.759543     0.000000 
 111.534190   395.000000     0.002532   390.839871     0.000000 
 111.551190   413.000000     0.002421   393.950543     0.000000 
 111.568190   434.000000     0.002304   397.084087     0.000000 
 111.585190   418.000000     0.002392   400.232267     0.000000 
 111.602190   422.000000     0.002370   403.386085     0.000000 
 111.619190   427.000000     0.002342   406.535745     0.000000 
 111.636190   453.000000     0.002208   409.670771     0.000000 
 111.653190   472.000000     0.002119   412.779927     0.000000 
 111.670190   491.000000     0.002037   415.851468     0.000000 
 111.687190   509.000000     0.001965   418.873027     0.000000 
 111.704190   503.000000     0.001988   421.832018     0.000000 
 111.721190   530.000000     0.001887   424.715479     0.000000 
 111.738190   549.000000     0.001821   427.510639     0.000000 
 111.755190   535.000000     0.001869   430.204702     0.000000 
 111.772190   509.000000     0.001965   432.785566     0.000000 
 111.789190   536.000000     0.001866   435.241533     0.000000 
 111.806190   544.000000     0.001838   437.562135     0.000000 
 111.823190   539.000000     0.001855   439.737746     0.000000 
 111.840190   542.000000     0.001845   441.760459     0.000000 
 111.857190   533.000000     0.001876   443.623565     0.000000 
 111.874190   530.000000     0.001887   445.322427     0.000000 
 111.891190   533.000000     0.001876   446.853802     0.000000 
 111.908190   581.000000     0.001721   448.216652     0.000000 
 111.925190   594.000000     0.001684   449.411316     0.000000 
 111.942200   588.000000     0.001701   450.440786     0.000000 
 111.959200   568.000000     0.001761   451.307421     0.000000 
 111.976200   558.000000     0.001792   452.017229     0.000000 
 111.993200   569.000000     0.001757   452.576269     0.000000 
 112.010200   586.000000     0.001706   452.991921     0.000000 
 112.027200   551.000000     0.001815   453.271799     0.000000 
 112.044200   545.000000     0.001835   453.424301     0.000000 
 112.061200   548.000000     0.001825   453.457623     0.000000 
 112.078200   549.000000     0.001821   453.380276     0.000000 
 112.095200   521.000000     0.001919   453.200218     0.000000 
 112.112200   533.000000     0.001876   452.925408     0.000000 
 112.129200   538.000000     0.001859   452.563061     0.000000 
 112.146200   521.000000     0.001919   452.120248     0.000000 
 112.163200   515.000000     0.001942   451.603281     0.000000 
 112.180200   558.000000     0.001792   451.018352     0.000000 
 112.197200   527.000000     0.001898   450.371038     0.000000 
 112.214200   480.000000     0.002083   449.666955     0.000000 
 112.231200   536.000000     0.001866   448.911344     0.000000 
 112.248200   547.000000     0.001828   448.109718     0.000000 
 112.265200   548.000000     0.001825   447.267493     0.000000 
 112.282200   505.000000     0.001980   446.390595     0.000000 
 112.299200   487.000000     0.002053   445.554216     0.000000 
 112.316200   467.000000     0.002141   444.538742     0.000000 
 112.333200   512.000000     0.001953   443.596963     0.000000 
 112.350200   480.000000     0.002083   442.648157     0.000000 
 112.367200   430.000000     0.002326   441.700439     0.000000 
 112.384200   477.000000     0.002096   440.762633     0.000000 
 112.401200   467.000000     0.002141   439.843801     0.000000 
 112.418200   456.000000     0.002193   438.953569     0.000000 
 112.435200   441.000000     0.002268   438.101641     0.000000 
 112.452200   456.000000     0.002193   437.298074     0.000000 
 112.469200   431.000000     0.002320   436.552805     0.000000 
 112.486200   467.000000     0.002141   435.875904     0.000000 
 112.503200   440.000000     0.002273   435.277120     0.000000 
 112.520200   440.000000     0.002273   434.766143     0.000000 
 112.537200   423.000000     0.002364   434.352170     0.000000 
 112.554200   420.000000     0.002381   434.044199     0.000000 
 112.571200   418.000000     0.002392   433.850605     0.000000 
 112.588200   410.000000     0.002439   433.779483     0.000000 
 112.605200   407.000000     0.002457   433.838212     0.000000 
 112.622200   402.000000     0.002488   434.033874     0.000000 
 112.639200   418.000000     0.002392   434.468207     0.000000 
 112.656200   418.000000     0.002392   434.956565     0.000000 
 112.673200   404.000000     0.002475   435.599360     0.000000 
 112.690200   415.000000     0.002410   436.401563     0.000000 
 112.707200   425.000000     0.002353   437.367250     0.000000 
 112.724200   416.000000     0.002404   438.500361     0.000000 
 112.741200   396.000000     0.002525   439.803871     0.000000 
 112.758200   408.000000     0.002451   441.280706     0.000000 
 112.775200   413.000000     0.002421   442.932741     0.000000 
 112.792200   389.000000     0.002571   444.761887     0.000000 
 112.809200   396.000000     0.002525   446.768892     0.000000 
 112.826200   408.000000     0.002451   448.954628     0.000000 
 112.843210   413.000000     0.002421   451.320114     0.000000 
 112.860210   405.000000     0.002469   453.862363     0.000000 
 112.877210   384.000000     0.002604   456.581047     0.000000 
 112.894210   409.000000     0.002445   459.474821     0.000000 
 112.911210   406.000000     0.002463   462.540718     0.000000 
 112.928210   405.000000     0.002469   465.776209     0.000000 
 112.945210   424.000000     0.002358   469.176982     0.000000 
 112.962210   417.000000     0.002398   472.739315     0.000000 
 112.979210   410.000000     0.002439   476.457561     0.000000 
 112.996210   435.000000     0.002299   480.326867     0.000000 
 113.013210   457.000000     0.002188   484.340353     0.000000 
 113.030210   474.000000     0.002110   488.571753     0.000000 
 113.047210   499.000000     0.002004   492.854240     0.000000 
 113.064210   443.000000     0.002257   497.260691     0.000000 
 113.081210   481.000000     0.002079   501.782559     0.000000 
 113.098210   492.000000     0.002033   506.413072     0.000000 
 113.115210   465.000000     0.002151   511.143508     0.000000 
 113.132210   466.000000     0.002146   515.967331     0.000000 
 113.149210   486.000000     0.002058   520.876190     0.000000 
 113.166210   483.000000     0.002070   525.864315     0.000000 
 113.183210   509.000000     0.001965   530.924248     0.000000 
 113.200210   538.000000     0.001859   536.051424     0.000000 
 113.217210   577.000000     0.001733   541.239679     0.000000 
 113.234210   532.000000     0.001880   546.485899     0.000000 
 113.251210   518.000000     0.001931   551.785362     0.000000 
 113.268210   539.000000     0.001855   557.136365     0.000000 
 113.285210   526.000000     0.001901   562.535473     0.000000 
 113.302210   543.000000     0.001842   567.982015     0.000000 
 113.319210   504.000000     0.001984   573.473367     0.000000 
 113.336210   498.000000     0.002008   579.009225     0.000000 
 113.353210   533.000000     0.001876   584.587033     0.000000 
 113.370210   522.000000     0.001916   590.205958     0.000000 
 113.387210   519.000000     0.001927   595.862628     0.000000 
 113.404210   508.000000     0.001969   601.554704     0.000000 
 113.421210   534.000000     0.001873   607.277085     0.000000 
 113.438210   519.000000     0.001927   613.024999     0.000000 
 113.455210   550.000000     0.001818   618.790820     0.000000 
 113.472210   559.000000     0.001789   624.566576     0.000000 
 113.489210   572.000000     0.001748   630.341556     0.000000 
 113.506210   563.000000     0.001776   636.104092     0.000000 
 113.523210   582.000000     0.001718   641.840116     0.000000 
 113.540210   614.000000     0.001629   647.534108     0.000000 
 113.557210   604.000000     0.001656   653.168746     0.000000 
 113.574210   621.000000     0.001610   658.724882     0.000000 
 113.591210   611.000000     0.001637   664.182440     0.000000 
 113.608210   637.000000     0.001570   669.519268     0.000000 
 113.625210   617.000000     0.001621   674.713451     0.000000 
 113.642210   623.000000     0.001605   679.740878     0.000000 
 113.659210   658.000000     0.001520   684.579081     0.000000 
 113.676210   630.000000     0.001587   689.203406     0.000000 
 113.693210   607.000000     0.001647   693.592439     0.000000 
 113.710210   591.000000     0.001692   697.722688     0.000000 
 113.727220   653.000000     0.001531   701.577754     0.000000 
 113.744220   665.000000     0.001504   705.132562     0.000000 
 113.761220   657.000000     0.001522   708.375508     0.000000 
 113.778220   619.000000     0.001616   711.290761     0.000000 
 113.795220   573.000000     0.001745   713.870421     0.000000 
 113.812220   595.000000     0.001681   716.104723     0.000000 
 113.829220   603.000000     0.001658   717.992745     0.000000 
 113.846220   637.000000     0.001570   719.531528     0.000000 
 113.863220   676.000000     0.001479   720.727296     0.000000 
 113.880220   635.000000     0.001575   721.583810     0.000000 
 113.897220   587.000000     0.001704   722.113792     0.000000 
 113.914220   601.000000     0.001664   722.326857     0.000000 
 113.931220   603.000000     0.001658   722.240821     0.000000 
 113.948220   589.000000     0.001698   721.869632     0.000000 
 113.965220   645.000000     0.001550   721.234304     0.000000 
 113.982220   637.000000     0.001570   720.351221     0.000000 
 113.999220   603.000000     0.001658   719.242567     0.000000 
 114.016220   632.000000     0.001582   717.925240     0.000000 
 114.033220   632.000000     0.001582   716.420750     0.000000 
 114.050220   591.000000     0.001692   714.744892     0.000000 
 114.067220   629.000000     0.001590   712.917138     0.000000 
 114.084220   595.000000     0.001681   710.951095     0.000000 
 114.101220   624.000000     0.001603   708.863453     0.000000 
 114.118220   578.000000     0.001730   706.665188     0.000000 
 114.135220   568.000000     0.001761   704.370131     0.000000 
 114.152220   601.000000     0.001664   701.986789     0.000000 
 114.169220   583.000000     0.001715   699.526600     0.000000 
 114.186220   578.000000     0.001730   696.996273     0.000000 
 114.203220   593.000000     0.001686   694.405680     0.000000 
 114.220220   543.000000     0.001842   691.760638     0.000000 
 114.237220   586.000000     0.001706   689.070409     0.000000 
 114.254220   554.000000     0.001805   686.340852     0.000000 
 114.271220   591.000000     0.001692   683.581435     0.000000 
 114.288220   559.000000     0.001789   680.798776     0.000000 
 114.305220   539.000000     0.001855   678.003028     0.000000 
 114.322220   584.000000     0.001712   675.201887     0.000000 
 114.339220   527.000000     0.001898   672.406249     0.000000 
 114.356220   556.000000     0.001799   669.624765     0.000000 
 114.373220   579.000000     0.001727   666.868666     0.000000 
 114.390220   518.000000     0.001931   664.147040     0.000000 
 114.407220   547.000000     0.001828   661.470709     0.000000 
 114.424220   541.000000     0.001848   658.848389     0.000000 
 114.441220   537.000000     0.001862   656.289569     0.000000 
 114.458220   572.000000     0.001748   653.801670     0.000000 
 114.475220   563.000000     0.001776   651.391904     0.000000 
 114.492220   552.000000     0.001812   649.022831     0.000000 
 114.509220   534.000000     0.001873   646.784077     0.000000 
 114.526220   568.000000     0.001761   644.635222     0.000000 
 114.543220   504.000000     0.001984   642.576718     0.000000 
 114.560220   463.000000     0.002160   640.607657     0.000000 
 114.577220   495.000000     0.002020   638.724556     0.000000 
 114.594220   501.000000     0.001996   636.923081     0.000000 
 114.611220   502.000000     0.001992   635.201923     0.000000 
 114.628230   517.000000     0.001934   633.540493     0.000000 
 114.645230   512.000000     0.001953   631.935935     0.000000 
 114.662230   524.000000     0.001908   630.377074     0.000000 
 114.679230   513.000000     0.001949   628.754497     0.000000 
 114.696230   511.000000     0.001957   627.248120     0.000000 
 114.713230   514.000000     0.001946   625.746558     0.000000 
 114.730230   506.000000     0.001976   624.237142     0.000000 
 114.747230   506.000000     0.001976   622.704087     0.000000 
 114.764230   489.000000     0.002045   621.135272     0.000000 
 114.781230   475.000000     0.002105   619.515757     0.000000 
 114.798230   462.000000     0.002165   617.835188     0.000000 
 114.815230   494.000000     0.002024   616.080694     0.000000 
 114.832230   491.000000     0.002037   614.244715     0.000000 
 114.849230   490.000000     0.002041   612.317408     0.000000 
 114.866230   504.000000     0.001984   610.294667     0.000000 
 114.883230   498.000000     0.002008   608.170208     0.000000 
 114.900230   486.000000     0.002058   605.943558     0.000000 
 114.917230   500.000000     0.002000   603.612025     0.000000 
 114.934230   525.000000     0.001905   601.178461     0.000000 
 114.951230   522.000000     0.001916   598.643312     0.000000 
 114.968230   482.000000     0.002075   596.012038     0.000000 
 114.985230   506.000000     0.001976   593.287415     0.000000 
 115.002230   486.000000     0.002058   590.476527     0.000000 
 115.019230   497.000000     0.002012   587.583505     0.000000 
 115.036230   517.000000     0.001934   584.616032     0.000000 
 115.053230   528.000000     0.001894   581.578630     0.000000 
 115.070230   505.000000     0.001980   578.478697     0.000000 
 115.087230   483.000000     0.002070   575.320381     0.000000 
 115.104230   485.000000     0.002062   572.110185     0.000000 
 115.121230   494.000000     0.002024   568.851438     0.000000 
 115.138230   489.000000     0.002045   565.549485     0.000000 
 115.155230   484.000000     0.002066   562.206733     0.000000 
 115.172230   465.000000     0.002151   558.827457     0.000000 
 115.189230   487.000000     0.002053   555.413361     0.000000 
 115.206230   464.000000     0.002155   551.968024     0.000000 
 115.223230   437.000000     0.002288   548.492897     0.000000 
 115.240230   485.000000     0.002062   544.991403     0.000000 
 115.257230   477.000000     0.002096   541.465308     0.000000 
 115.274230   457.000000     0.002188   537.918442     0.000000 
 115.291230   445.000000     0.002247   534.353435     0.000000 
 115.308230   461.000000     0.002169   530.774999     0.000000 
 115.325230   440.000000     0.002273   527.187020     0.000000 
 115.342230   440.000000     0.002273   523.595373     0.000000 
 115.359230   431.000000     0.002320   520.033092     0.000000 
 115.376230   454.000000     0.002203   516.451873     0.000000 
 115.393230   437.000000     0.002288   512.886058     0.000000 
 115.410230   424.000000     0.002358   509.343730     0.000000 
 115.427230   424.000000     0.002358   505.832656     0.000000 
 115.444230   416.000000     0.002404   502.361563     0.000000 
 115.461230   406.000000     0.002463   498.938893     0.000000 
 115.478230   405.000000     0.002469   495.573561     0.000000 
 115.495230   414.000000     0.002415   492.274221     0.000000 
 115.512240   414.000000     0.002415   489.047655     0.000000 
 115.529240   411.000000     0.002433   485.906081     0.000000 
 115.546240   415.000000     0.002410   482.855586     0.000000 
 115.563240   420.000000     0.002381   479.904003     0.000000 
 115.580240   415.000000     0.002410   477.058395     0.000000 
 115.597240   368.000000     0.002717   474.325745     0.000000 
 115.614240   379.000000     0.002639   471.711996     0.000000 
 115.631240   415.000000     0.002410   469.223129     0.000000 
 115.648240   418.000000     0.002392   466.863880     0.000000 
 115.665240   438.000000     0.002283   464.639154     0.000000 
 115.682240   417.000000     0.002398   462.552472     0.000000 
 115.699240   402.000000     0.002488   460.607652     0.000000 
 115.716240   420.000000     0.002381   458.807041     0.000000 
 115.733240   414.000000     0.002415   457.153393     0.000000 
 115.750240   383.000000     0.002611   455.647946     0.000000 
 115.767240   397.000000     0.002519   454.292430     0.000000 
 115.784240   401.000000     0.002494   453.087043     0.000000 
 115.801240   412.000000     0.002427   452.032537     0.000000 
 115.818240   397.000000     0.002519   451.128137     0.000000 
 115.835240   385.000000     0.002597   450.373650     0.000000 
 115.852240   387.000000     0.002584   449.767387     0.000000 
 115.869240   395.000000     0.002532   449.308239     0.000000 
 115.886240   399.000000     0.002506   448.993654     0.000000 
 115.903240   380.000000     0.002632   448.821633     0.000000 
 115.920240   419.000000     0.002387   448.788808     0.000000 
 115.937240   405.000000     0.002469   448.892322     0.000000 
 115.954240   387.000000     0.002584   449.128050     0.000000 
 115.971240   389.000000     0.002571   449.492326     0.000000 
 115.988240   384.000000     0.002604   449.980347     0.000000 
 116.005240   408.000000     0.002451   450.587720     0.000000 
 116.022240   365.000000     0.002740   451.309076     0.000000 
 116.039240   399.000000     0.002506   452.149501     0.000000 
 116.056240   392.000000     0.002551   453.083069     0.000000 
 116.073240   386.000000     0.002591   454.114404     0.000000 
 116.090240   380.000000     0.002632   455.237528     0.000000 
 116.107240   416.000000     0.002404   456.446776     0.000000 
 116.124240   403.000000     0.002481   457.736191     0.000000 
 116.141240   379.000000     0.002639   459.100120     0.000000 
 116.158240   388.000000     0.002577   460.532866     0.000000 
 116.175240   402.000000     0.002488   462.029023     0.000000 
 116.192240   375.000000     0.002667   463.583357     0.000000 
 116.209240   389.000000     0.002571   465.190898     0.000000 
 116.226240   386.000000     0.002591   466.847009     0.000000 
 116.243240   410.000000     0.002439   468.547257     0.000000 
 116.260240   399.000000     0.002506   470.287631     0.000000 
 116.277240   390.000000     0.002564   472.064222     0.000000 
 116.294240   409.000000     0.002445   473.873543     0.000000 
 116.311240   408.000000     0.002451   475.643915     0.000000 
 116.328240   422.000000     0.002370   477.508712     0.000000 
 116.345240   402.000000     0.002488   479.396140     0.000000 
 116.362240   395.000000     0.002532   481.303019     0.000000 
 116.379240   415.000000     0.002410   483.225757     0.000000 
 116.396240   409.000000     0.002445   485.160815     0.000000 
 116.413250   409.000000     0.002445   487.105198     0.000000 
 116.430250   451.000000     0.002217   489.052379     0.000000 
 116.447250   443.000000     0.002257   490.998505     0.000000 
 116.464250   434.000000     0.002304   492.938364     0.000000 
 116.481250   455.000000     0.002198   494.865882     0.000000 
 116.498250   428.000000     0.002336   496.774735     0.000000 
 116.515250   421.000000     0.002375   498.657678     0.000000 
 116.532250   443.000000     0.002257   500.507283     0.000000 
 116.549250   467.000000     0.002141   502.315218     0.000000 
 116.566250   460.000000     0.002174   504.073120     0.000000 
 116.583250   479.000000     0.002088   505.771824     0.000000 
 116.600250   479.000000     0.002088   507.402372     0.000000 
 116.617250   484.000000     0.002066   508.955171     0.000000 
 116.634250   492.000000     0.002033   510.421147     0.000000 
 116.651250   470.000000     0.002128   511.790791     0.000000 
 116.668250   452.000000     0.002212   513.055468     0.000000 
 116.685250   455.000000     0.002198   514.206341     0.000000 
 116.702250   478.000000     0.002092   515.235779     0.000000 
 116.719250   487.000000     0.002053   516.136174     0.000000 
 116.736250   471.000000     0.002123   516.901411     0.000000 
 116.753250   470.000000     0.002128   517.525583     0.000000 
 116.770250   454.000000     0.002203   518.004475     0.000000 
 116.787250   452.000000     0.002212   518.334208     0.000000 
 116.804250   485.000000     0.002062   518.512674     0.000000 
 116.821250   486.000000     0.002058   518.591306     0.000000 
 116.838250   484.000000     0.002066   518.463955     0.000000 
 116.855250   451.000000     0.002217   518.184073     0.000000 
 116.872250   446.000000     0.002242   517.753676     0.000000 
 116.889250   453.000000     0.002208   517.175090     0.000000 
 116.906250   475.000000     0.002105   516.452020     0.000000 
 116.923250   444.000000     0.002252   515.588364     0.000000 
 116.940250   457.000000     0.002188   514.589129     0.000000 
 116.957250   453.000000     0.002208   513.459368     0.000000 
 116.974250   498.000000     0.002008   512.204951     0.000000 
 116.991250   440.000000     0.002273   510.831654     0.000000 
 117.008250   442.000000     0.002262   509.345779     0.000000 
 117.025250   459.000000     0.002179   507.753417     0.000000 
 117.042250   501.000000     0.001996   506.060933     0.000000 
 117.059250   443.000000     0.002257   504.274394     0.000000 
 117.076250   441.000000     0.002268   502.399952     0.000000 
 117.093250   475.000000     0.002105   500.443419     0.000000 
 117.110250   456.000000     0.002193   498.410570     0.000000 
 117.127250   444.000000     0.002252   496.306854     0.000000 
 117.144250   466.000000     0.002146   494.137624     0.000000 
 117.161250   390.000000     0.002564   491.907965     0.000000 
 117.178250   447.000000     0.002237   489.622869     0.000000 
 117.195250   401.000000     0.002494   487.287149     0.000000 
 117.212250   443.000000     0.002257   484.905560     0.000000 
 117.229250   431.000000     0.002320   482.482791     0.000000 
 117.246250   454.000000     0.002203   480.023515     0.000000 
 117.263250   411.000000     0.002433   477.532453     0.000000 
 117.280250   438.000000     0.002283   475.014346     0.000000 
 117.297250   414.000000     0.002415   472.474078     0.000000 
 117.314260   386.000000     0.002591   469.915064     0.000000 
 117.331260   395.000000     0.002532   467.345440     0.000000 
 117.348260   397.000000     0.002519   464.768865     0.000000 
 117.365260   437.000000     0.002288   462.190733     0.000000 
 117.382260   379.000000     0.002639   459.616423     0.000000 
 117.399260   388.000000     0.002577   457.051557     0.000000 
 117.416260   406.000000     0.002463   454.501662     0.000000 
 117.433260   436.000000     0.002294   451.972494     0.000000 
 117.450260   418.000000     0.002392   449.469611     0.000000 
 117.467260   397.000000     0.002519   446.998765     0.000000 
 117.484260   388.000000     0.002577   444.565397     0.000000 
 117.501260   385.000000     0.002597   442.175093     0.000000 
 117.518260   393.000000     0.002545   439.833017     0.000000 
 117.535260   388.000000     0.002577   437.544428     0.000000 
 117.552260   404.000000     0.002475   435.314056     0.000000 
 117.569260   392.000000     0.002551   433.146683     0.000000 
 117.586260   357.000000     0.002801   431.046474     0.000000 
 117.603260   374.000000     0.002674   429.017611     0.000000 
 117.620260   384.000000     0.002604   427.063591     0.000000 
 117.637260   378.000000     0.002646   425.187906     0.000000 
 117.654260   398.000000     0.002513   423.393315     0.000000 
 117.671260   396.000000     0.002525   421.682570     0.000000 
 117.688260   397.000000     0.002519   420.057657     0.000000 
 117.705260   389.000000     0.002571   418.520556     0.000000 
 117.722260   387.000000     0.002584   417.072478     0.000000 
 117.739260   374.000000     0.002674   415.714628     0.000000 
 117.756260   374.000000     0.002674   414.447449     0.000000 
 117.773260   378.000000     0.002646   413.271386     0.000000 
 117.790260   369.000000     0.002710   412.186136     0.000000 
 117.807260   398.000000     0.002513   411.191400     0.000000 
 117.824260   401.000000     0.002494   410.286153     0.000000 
 117.841260   376.000000     0.002660   409.469373     0.000000 
 117.858260   368.000000     0.002717   408.739335     0.000000 
 117.875260   383.000000     0.002611   408.094308     0.000000 
 117.892260   382.000000     0.002618   407.531887     0.000000 
 117.909260   382.000000     0.002618   407.049644     0.000000 
 117.926260   388.000000     0.002577   406.644505     0.000000 
 117.943260   383.000000     0.002611   406.313359     0.000000 
 117.960260   379.000000     0.002639   406.052480     0.000000 
 117.977260   383.000000     0.002611   405.858083     0.000000 
 117.994260   399.000000     0.002506   405.725809     0.000000 
 118.011260   371.000000     0.002695   405.651233     0.000000 
 118.028260   387.000000     0.002584   405.629401     0.000000 
 118.045260   359.000000     0.002786   405.655287     0.000000 
 118.062260   378.000000     0.002646   405.723414     0.000000 
 118.079260   410.000000     0.002439   405.828242     0.000000 
 118.096260   377.000000     0.002653   405.963870     0.000000 
 118.113260   422.000000     0.002370   406.124371     0.000000 
 118.130260   419.000000     0.002387   406.303576     0.000000 
 118.147260   418.000000     0.002392   406.495347     0.000000 
 118.164260   408.000000     0.002451   406.693451     0.000000 
 118.181260   422.000000     0.002370   406.891763     0.000000 
 118.198270   417.000000     0.002398   407.084342     0.000000 
 118.215270   401.000000     0.002494   407.265113     0.000000 
 118.232270   425.000000     0.002353   407.428589     0.000000 
 118.249270   403.000000     0.002481   407.569480     0.000000 
 118.266270   402.000000     0.002488   407.682901     0.000000 
 118.283270   383.000000     0.002611   407.764373     0.000000 
 118.300270   409.000000     0.002445   407.809953     0.000000 
 118.317270   398.000000     0.002513   407.816169     0.000000 
 118.334270   413.000000     0.002421   407.780174     0.000000 
 118.351270   424.000000     0.002358   407.699609     0.000000 
 118.368270   409.000000     0.002445   407.572772     0.000000 
 118.385270   417.000000     0.002398   407.398416     0.000000 
 118.402270   378.000000     0.002646   407.175918     0.000000 
 118.419270   399.000000     0.002506   406.905033     0.000000 
 118.436270   391.000000     0.002558   406.586053     0.000000 
 118.453270   413.000000     0.002421   406.219529     0.000000 
 118.470270   395.000000     0.002532   405.806429     0.000000 
 118.487270   395.000000     0.002532   405.347847     0.000000 
 118.504270   422.000000     0.002370   404.845149     0.000000 
 118.521270   411.000000     0.002433   404.299700     0.000000 
 118.538270   396.000000     0.002525   403.713001     0.000000 
 118.555270   402.000000     0.002488   403.086446     0.000000 
 118.572270   409.000000     0.002445   402.421453     0.000000 
 118.589270   397.000000     0.002519   401.719259     0.000000 
 118.606270   394.000000     0.002538   400.981052     0.000000 
 118.623270   400.000000     0.002500   400.207811     0.000000 
 118.640270   389.000000     0.002571   399.400433     0.000000 
 118.657270   400.000000     0.002500   398.559616     0.000000 
 118.674270   379.000000     0.002639   397.626048     0.000000 
 118.691270   368.000000     0.002717   396.720288     0.000000 
 118.708270   365.000000     0.002740   395.782639     0.000000 
 118.725270   378.000000     0.002646   394.813467     0.000000 
 118.742270   377.000000     0.002653   393.813168     0.000000 
 118.759270   372.000000     0.002688   392.782148     0.000000 
 118.776270   368.000000     0.002717   391.720901     0.000000 
 118.793270   383.000000     0.002611   390.630015     0.000000 
 118.810270   385.000000     0.002597   389.510218     0.000000 
 118.827270   378.000000     0.002646   388.362404     0.000000 
 118.844270   390.000000     0.002564   387.187635     0.000000 
 118.861270   395.000000     0.002532   385.987184     0.000000 
 118.878270   391.000000     0.002558   384.762496     0.000000 
 118.895270   385.000000     0.002597   383.515249     0.000000 
 118.912270   371.000000     0.002695   382.247261     0.000000 
 118.929270   360.000000     0.002778   380.960580     0.000000 
 118.946270   341.000000     0.002933   379.657342     0.000000 
 118.963270   378.000000     0.002646   378.339888     0.000000 
 118.980270   372.000000     0.002688   377.010581     0.000000 
 118.997270   376.000000     0.002660   375.671946     0.000000 
 119.014270   367.000000     0.002725   374.326457     0.000000 
 119.031270   370.000000     0.002703   372.976707     0.000000 
 119.048270   366.000000     0.002732   371.625166     0.000000 
 119.065270   365.000000     0.002740   370.274376     0.000000 
 119.082270   383.000000     0.002611   368.926696     0.000000 
 119.099280   375.000000     0.002667   367.583728     0.000000 
 119.116280   338.000000     0.002959   366.249214     0.000000 
 119.133280   374.000000     0.002674   364.924523     0.000000 
 119.150280   410.000000     0.002439   363.611553     0.000000 
 119.167280   405.000000     0.002469   362.312183     0.000000 
 119.184280   355.000000     0.002817   361.028011     0.000000 
 119.201280   366.000000     0.002732   359.760609     0.000000 
 119.218280   375.000000     0.002667   358.511258     0.000000 
 119.235280   443.000000     0.002257   357.281220     0.000000 
 119.252280   362.000000     0.002762   356.071470     0.000000 
 119.269280   356.000000     0.002809   354.882972     0.000000 
 119.286280   389.000000     0.002571   353.716418     0.000000 
 119.303280   375.000000     0.002667   352.572504     0.000000 
 119.320280   369.000000     0.002710   351.451677     0.000000 
 119.337280   396.000000     0.002525   350.354401     0.000000 
 119.354280   381.000000     0.002625   349.280918     0.000000 
 119.371280   385.000000     0.002597   348.227420     0.000000 
 119.388280   393.000000     0.002545   347.202171     0.000000 
 119.405280   363.000000     0.002755   346.201207     0.000000 
 119.422280   378.000000     0.002646   345.224485     0.000000 
 119.439280   358.000000     0.002793   344.272033     0.000000 
 119.456280   356.000000     0.002809   343.343722     0.000000 
 119.473280   392.000000     0.002551   342.439507     0.000000 
 119.490280   389.000000     0.002571   341.559202     0.000000 
 119.507280   365.000000     0.002740   340.702709     0.000000 
 119.524280   360.000000     0.002778   339.869805     0.000000 
 119.541280   360.000000     0.002778   339.060354     0.000000 
 119.558280   365.000000     0.002740   338.274109     0.000000 
 119.575280   364.000000     0.002747   337.510905     0.000000 
 119.592280   359.000000     0.002786   336.770473     0.000000 
 119.609280   352.000000     0.002841   336.052621     0.000000 
 119.626280   354.000000     0.002825   335.357062     0.000000 
 119.643280   362.000000     0.002762   334.683577     0.000000 
 119.660280   341.000000     0.002933   334.031859     0.000000 
 119.677280   346.000000     0.002890   333.401660     0.000000 
 119.694280   358.000000     0.002793   332.792651     0.000000 
 119.711280   380.000000     0.002632   332.204554     0.000000 
 119.728280   367.000000     0.002725   331.637020     0.000000 
 119.745280   334.000000     0.002994   331.089741     0.000000 
 119.762280   343.000000     0.002915   330.562348     0.000000 
 119.779280   339.000000     0.002950   330.054505     0.000000 
 119.796280   317.000000     0.003155   329.565826     0.000000 
 119.813280   351.000000     0.002849   329.095954     0.000000 
 119.830280   369.000000     0.002710   328.644485     0.000000 
 119.847280   323.000000     0.003096   328.211048     0.000000 
 119.864280   357.000000     0.002801   327.795229     0.000000 
 119.881280   367.000000     0.002725   327.328338     0.000000 
 119.898280   359.000000     0.002786   326.946745     0.000000 
 119.915280   323.000000     0.003096   326.581582     0.000000 
 119.932280   338.000000     0.002959   326.232435     0.000000 
 119.949280   343.000000     0.002915   325.898916     0.000000 
 119.966280   344.000000     0.002907   325.580621     0.000000 
 119.983280   363.000000     0.002755   325.277167     0.000000 
 120.000290   339.000000     0.002950   324.987997     0.000000 
 120.017290   299.000000     0.003344   324.713080     0.000000 
 120.034290   351.000000     0.002849   324.451867     0.000000 
 120.051290   339.000000     0.002950   324.204004     0.000000 
 120.068290   336.000000     0.002976   323.969137     0.000000 
 120.085290   379.000000     0.002639   323.746932     0.000000 
 120.102290   357.000000     0.002801   323.537059     0.000000 
 120.119290   341.000000     0.002933   323.339207     0.000000 
 120.136290   336.000000     0.002976   323.153072     0.000000 
 120.153290   345.000000     0.002899   322.978369     0.000000 
 120.170290   347.000000     0.002882   322.814821     0.000000 
 120.187290   327.000000     0.003058   322.662174     0.000000 
 120.204290   308.000000     0.003247   322.520176     0.000000 
 120.221290   325.000000     0.003077   322.388605     0.000000 
 120.238290   334.000000     0.002994   322.267239     0.000000 
 120.255290   292.000000     0.003425   322.155887     0.000000 
 120.272290   329.000000     0.003040   322.054358     0.000000 
 120.289290   334.000000     0.002994   321.962492     0.000000 
 120.306290   331.000000     0.003021   321.880129     0.000000 
 120.323290   332.000000     0.003012   321.807143     0.000000 
 120.340290   319.000000     0.003135   321.743404     0.000000 
 120.357290   305.000000     0.003279   321.688820     0.000000 
 120.374290   302.000000     0.003311   321.643293     0.000000 
 120.391290   329.000000     0.003040   321.606763     0.000000 
 120.408290   307.000000     0.003257   321.579163     0.000000 
 120.425290   339.000000     0.002950   321.560468     0.000000 
 120.442290   343.000000     0.002915   321.550641     0.000000 
 120.459290   335.000000     0.002985   321.549691     0.000000 
 120.476290   348.000000     0.002874   321.557611     0.000000 
 120.493290   343.000000     0.002915   321.574443     0.000000 
 120.510290   324.000000     0.003086   321.600211     0.000000 
 120.527290   331.000000     0.003021   321.634990     0.000000 
 120.544290   335.000000     0.002985   321.678831     0.000000 
 120.561290   339.000000     0.002950   321.731844     0.000000 
 120.578290   327.000000     0.003058   321.794107     0.000000 
 120.595290   322.000000     0.003106   321.865761     0.000000 
 120.612290   313.000000     0.003195   321.946911     0.000000 
 120.629290   306.000000     0.003268   322.037730     0.000000 
 120.646290   324.000000     0.003086   322.138347     0.000000 
 120.663290   346.000000     0.002890   322.248967     0.000000 
 120.680290   330.000000     0.003030   322.369740     0.000000 
 120.697290   326.000000     0.003067   322.500901     0.000000 
 120.714290   333.000000     0.003003   322.642622     0.000000 
 120.731290   343.000000     0.002915   322.795163     0.000000 
 120.748290   343.000000     0.002915   322.958718     0.000000 
 120.765290   352.000000     0.002841   323.133573     0.000000 
 120.782290   354.000000     0.002825   323.319936     0.000000 
 120.799290   335.000000     0.002985   323.518118     0.000000 
 120.816290   362.000000     0.002762   323.728342     0.000000 
 120.833290   332.000000     0.003012   323.950940     0.000000 
 120.850290   307.000000     0.003257   324.186148     0.000000 
 120.867290   332.000000     0.003012   324.434315     0.000000 
 120.884300   305.000000     0.003279   324.695845     0.000000 
 120.901300   338.000000     0.002959   324.970793     0.000000 
 120.918300   339.000000     0.002950   325.259562     0.000000 
 120.935300   331.000000     0.003021   325.562527     0.000000 
 120.952300   320.000000     0.003125   325.879944     0.000000 
 120.969300   349.000000     0.002865   326.212193     0.000000 
 120.986300   314.000000     0.003185   326.559528     0.000000 
 121.003300   327.000000     0.003058   326.922333     0.000000 
 121.020300   358.000000     0.002793   327.300855     0.000000 
 121.037300   337.000000     0.002967   327.695474     0.000000 
 121.054300   350.000000     0.002857   328.106423     0.000000 
 121.071300   312.000000     0.003205   328.534073     0.000000 
 121.088300   353.000000     0.002833   328.978638     0.000000 
 121.105300   314.000000     0.003185   329.440472     0.000000 
 121.122300   311.000000     0.003215   329.919761     0.000000 
 121.139300   313.000000     0.003195   330.416833     0.000000 
 121.156300   322.000000     0.003106   330.931839     0.000000 
 121.173300   322.000000     0.003106   331.465074     0.000000 
 121.190300   317.000000     0.003155   332.016645     0.000000 
 121.207300   359.000000     0.002786   332.586800     0.000000 
 121.224300   343.000000     0.002915   333.175595     0.000000 
 121.241300   332.000000     0.003012   333.783223     0.000000 
 121.258300   326.000000     0.003067   334.409676     0.000000 
 121.275300   299.000000     0.003344   335.055081     0.000000 
 121.292300   308.000000     0.003247   335.719357     0.000000 
 121.309300   307.000000     0.003257   336.402552     0.000000 
 121.326300   343.000000     0.002915   337.104499     0.000000 
 121.343300   364.000000     0.002747   337.825154     0.000000 
 121.360300   357.000000     0.002801   338.564253     0.000000 
 121.377300   335.000000     0.002985   339.321643     0.000000 
 121.394300   302.000000     0.003311   340.096950     0.000000 
 121.411300   328.000000     0.003049   340.889896     0.000000 
 121.428300   336.000000     0.002976   341.699980     0.000000 
 121.445300   358.000000     0.002793   342.526782     0.000000 
 121.462300   343.000000     0.002915   343.369655     0.000000 
 121.479300   357.000000     0.002801   344.228016     0.000000 
 121.496300   360.000000     0.002778   345.101057     0.000000 
 121.513300   370.000000     0.002703   345.988006     0.000000 
 121.530300   357.000000     0.002801   346.887874     0.000000 
 121.547300   347.000000     0.002882   347.799679     0.000000 
 121.564300   341.000000     0.002933   348.722229     0.000000 
 121.581300   345.000000     0.002899   349.654309     0.000000 
 121.598300   331.000000     0.003021   350.594506     0.000000 
 121.615300   322.000000     0.003106   351.541352     0.000000 
 121.632300   343.000000     0.002915   352.493196     0.000000 
 121.649300   336.000000     0.002976   353.448300     0.000000 
 121.666300   356.000000     0.002809   354.404773     0.000000 
 121.683300   363.000000     0.002755   355.360599     0.000000 
 121.700300   367.000000     0.002725   356.313645     0.000000 
 121.717300   369.000000     0.002710   357.261628     0.000000 
 121.734300   375.000000     0.002667   358.202197     0.000000 
 121.751300   383.000000     0.002611   359.132820     0.000000 
 121.768300   378.000000     0.002646   360.050969     0.000000 
 121.785310   381.000000     0.002625   360.954440     0.000000 
 121.802310   368.000000     0.002717   361.839524     0.000000 
 121.819310   378.000000     0.002646   362.703903     0.000000 
 121.836310   379.000000     0.002639   363.544899     0.000000 
 121.853310   366.000000     0.002732   364.359632     0.000000 
 121.870310   365.000000     0.002740   365.145501     0.000000 
 121.887310   355.000000     0.002817   365.899715     0.000000 
 121.904310   361.000000     0.002770   366.619873     0.000000 
 121.921310   403.000000     0.002481   367.303401     0.000000 
 121.938310   400.000000     0.002500   367.948225     0.000000 
 121.955310   418.000000     0.002392   368.552118     0.000000 
 121.972310   392.000000     0.002551   369.113444     0.000000 
 121.989310   362.000000     0.002762   369.630434     0.000000 
 122.006310   346.000000     0.002890   370.101982     0.000000 
 122.023310   385.000000     0.002597   370.526855     0.000000 
 122.040310   369.000000     0.002710   370.904527     0.000000 
 122.057310   385.000000     0.002597   371.234339     0.000000 
 122.074310   356.000000     0.002809   371.516344     0.000000 
 122.091310   382.000000     0.002618   371.750447     0.000000 
 122.108310   365.000000     0.002740   371.937233     0.000000 
 122.125310   393.000000     0.002545   372.077108     0.000000 
 122.142310   408.000000     0.002451   372.171104     0.000000 
 122.159310   375.000000     0.002667   372.220029     0.000000 
 122.176310   360.000000     0.002778   372.225239     0.000000 
 122.193310   408.000000     0.002451   372.187824     0.000000 
 122.210310   359.000000     0.002786   372.109336     0.000000 
 122.227310   385.000000     0.002597   371.991016     0.000000 
 122.244310   389.000000     0.002571   371.834484     0.000000 
 122.261310   381.000000     0.002625   371.641018     0.000000 
 122.278310   395.000000     0.002532   371.412196     0.000000 
 122.295310   402.000000     0.002488   371.149241     0.000000 
 122.312310   384.000000     0.002604   370.853617     0.000000 
 122.329310   388.000000     0.002577   370.526428     0.000000 
 122.346310   396.000000     0.002525   370.168985     0.000000 
 122.363310   362.000000     0.002762   369.782255     0.000000 
 122.380310   372.000000     0.002688   369.367393     0.000000 
 122.397310   387.000000     0.002584   368.865179     0.000000 
 122.414310   383.000000     0.002611   368.396905     0.000000 
 122.431310   359.000000     0.002786   367.903123     0.000000 
 122.448310   377.000000     0.002653   367.384787     0.000000 
 122.465310   371.000000     0.002695   366.842623     0.000000 
 122.482310   377.000000     0.002653   366.277578     0.000000 
 122.499310   373.000000     0.002681   365.690416     0.000000 
 122.516310   376.000000     0.002660   365.082135     0.000000 
 122.533310   365.000000     0.002740   364.453595     0.000000 
 122.550310   367.000000     0.002725   363.805898     0.000000 
 122.567310   360.000000     0.002778   363.140043     0.000000 
 122.584310   354.000000     0.002825   362.457267     0.000000 
 122.601310   366.000000     0.002732   361.758728     0.000000 
 122.618310   355.000000     0.002817   361.045805     0.000000 
 122.635310   347.000000     0.002882   360.319813     0.000000 
 122.652310   370.000000     0.002703   359.582254     0.000000 
 122.669310   370.000000     0.002703   358.834576     0.000000 
 122.686320   344.000000     0.002907   358.077922     0.000000 
 122.703320   348.000000     0.002874   357.314721     0.000000 
 122.720320   340.000000     0.002941   356.546157     0.000000 
 122.737320   330.000000     0.003030   355.773810     0.000000 
 122.754320   352.000000     0.002841   354.999292     0.000000 
 122.771320   358.000000     0.002793   354.224169     0.000000 
 122.788320   345.000000     0.002899   353.449986     0.000000 
 122.805320   363.000000     0.002755   352.678245     0.000000 
 122.822320   355.000000     0.002817   351.910385     0.000000 
 122.839320   361.000000     0.002770   351.147803     0.000000 
 122.856320   366.000000     0.002732   350.391795     0.000000 
 122.873320   360.000000     0.002778   349.643625     0.000000 
 122.890320   353.000000     0.002833   348.904428     0.000000 
 122.907320   344.000000     0.002907   348.175317     0.000000 
 122.924320   376.000000     0.002660   347.457252     0.000000 
 122.941320   360.000000     0.002778   346.751189     0.000000 
 122.958320   335.000000     0.002985   346.057913     0.000000 
 122.975320   361.000000     0.002770   345.378223     0.000000 
 122.992320   344.000000     0.002907   344.712737     0.000000 
 123.009320   376.000000     0.002660   344.062101     0.000000 
 123.026320   350.000000     0.002857   343.356075     0.000000 
 123.043320   310.000000     0.003226   342.736796     0.000000 
 123.060320   337.000000     0.002967   342.133660     0.000000 
 123.077320   332.000000     0.003012   341.547044     0.000000 
 123.094320   352.000000     0.002841   340.977145     0.000000 
 123.111320   362.000000     0.002762   340.424230     0.000000 
 123.128320   342.000000     0.002924   339.888388     0.000000 
 123.145320   329.000000     0.003040   339.365696     0.000000 
 123.162320   325.000000     0.003077   338.864338     0.000000 
 123.179320   329.000000     0.003040   338.380298     0.000000 
 123.196320   333.000000     0.003003   337.913493     0.000000 
 123.213320   304.000000     0.003289   337.463930     0.000000 
 123.230320   312.000000     0.003205   337.031464     0.000000 
 123.247320   316.000000     0.003165   336.616041     0.000000 
 123.264320   324.000000     0.003086   336.217460     0.000000 
 123.281320   326.000000     0.003067   335.835618     0.000000 
 123.298320   320.000000     0.003125   335.470270     0.000000 
 123.315320   349.000000     0.002865   335.121271     0.000000 
 123.332320   332.000000     0.003012   334.788343     0.000000 
 123.349320   329.000000     0.003040   334.471305     0.000000 
 123.366320   323.000000     0.003096   334.169853     0.000000 
 123.383320   343.000000     0.002915   333.883782     0.000000 
 123.400320   343.000000     0.002915   333.612767     0.000000 
 123.417320   318.000000     0.003145   333.356582     0.000000 
 123.434320   305.000000     0.003279   333.114889     0.000000 
 123.451320   321.000000     0.003115   332.887448     0.000000 
 123.468320   311.000000     0.003215   332.673912     0.000000 
 123.485320   318.000000     0.003145   332.474031     0.000000 
 123.502320   342.000000     0.002924   332.287456     0.000000 
 123.519320   335.000000     0.002985   332.113928     0.000000 
 123.536320   321.000000     0.003115   331.953102     0.000000 
 123.553320   334.000000     0.002994   331.804717     0.000000 
 123.570330   332.000000     0.003012   331.668354     0.000000 
 123.587330   318.000000     0.003145   331.543912     0.000000 
 123.604330   321.000000     0.003115   331.430976     0.000000 
 123.621330   311.000000     0.003215   331.329286     0.000000 
 123.638330   317.000000     0.003155   331.238522     0.000000 
 123.655330   327.000000     0.003058   331.158432     0.000000 
 123.672330   323.000000     0.003096   331.088705     0.000000 
 123.689330   310.000000     0.003226   331.029100     0.000000 
 123.706330   315.000000     0.003175   330.979321     0.000000 
 123.723330   323.000000     0.003096   330.939135     0.000000 
 123.740330   335.000000     0.002985   330.908263     0.000000 
 123.757330   328.000000     0.003049   330.886485     0.000000 
 123.774330   298.000000     0.003356   330.873539     0.000000 
 123.791330   324.000000     0.003086   330.869218     0.000000 
 123.808330   346.000000     0.002890   330.873278     0.000000 
 123.825330   350.000000     0.002857   330.885526     0.000000 
 123.842330   345.000000     0.002899   330.905738     0.000000 
 123.859330   334.000000     0.002994   330.933738     0.000000 
 123.876330   341.000000     0.002933   330.969318     0.000000 
 123.893330   340.000000     0.002941   331.012318     0.000000 
 123.910330   376.000000     0.002660   331.062553     0.000000 
 123.927330   355.000000     0.002817   331.119878     0.000000 
 123.944330   343.000000     0.002915   331.184127     0.000000 
 123.961330   353.000000     0.002833   331.255173     0.000000 
 123.978330   381.000000     0.002625   331.332870     0.000000 
 123.995330   351.000000     0.002849   331.417108     0.000000 
 124.012330   368.000000     0.002717   331.507761     0.000000 
 124.029330   342.000000     0.002924   331.604737     0.000000 
 124.046330   324.000000     0.003086   331.707929     0.000000 
 124.063330   338.000000     0.002959   331.817262     0.000000 
 124.080330   345.000000     0.002899   331.932650     0.000000 
 124.097330   329.000000     0.003040   332.054035     0.000000 
 124.114330   326.000000     0.003067   332.181352     0.000000 
 124.131330   358.000000     0.002793   332.314558     0.000000 
 124.148330   384.000000     0.002604   332.453608     0.000000 
 124.165330   339.000000     0.002950   332.598480     0.000000 
 124.182330   364.000000     0.002747   332.749145     0.000000 
 124.199330   320.000000     0.003125   332.905599     0.000000 
 124.216330   350.000000     0.002857   333.067835     0.000000 
 124.233330   355.000000     0.002817   333.235865     0.000000 
 124.250330   345.000000     0.002899   333.409702     0.000000 
 124.267330   355.000000     0.002817   333.589377     0.000000 
 124.284330   335.000000     0.002985   333.774923     0.000000 
 124.301330   362.000000     0.002762   333.966388     0.000000 
 124.318330   361.000000     0.002770   334.163827     0.000000 
 124.335330   350.000000     0.002857   334.367308     0.000000 
 124.352330   316.000000     0.003165   334.576904     0.000000 
 124.369330   320.000000     0.003125   334.792705     0.000000 
 124.386330   333.000000     0.003003   335.014807     0.000000 
 124.403330   350.000000     0.002857   335.243317     0.000000 
 124.420330   347.000000     0.002882   335.478355     0.000000 
 124.437330   344.000000     0.002907   335.720052     0.000000 
 124.454330   352.000000     0.002841   335.968549     0.000000 
 124.471340   359.000000     0.002786   336.224152     0.000000 
 124.488340   347.000000     0.002882   336.486728     0.000000 
 124.505340   328.000000     0.003049   336.756603     0.000000 
 124.522340   327.000000     0.003058   337.033969     0.000000 
 124.539340   332.000000     0.003012   337.319030     0.000000 
 124.556340   339.000000     0.002950   337.612007     0.000000 
 124.573340   330.000000     0.003030   337.913130     0.000000 
 124.590340   333.000000     0.003003   338.222651     0.000000 
 124.607340   334.000000     0.002994   338.540829     0.000000 
 124.624340   345.000000     0.002899   338.867945     0.000000 
 124.641340   356.000000     0.002809   339.204291     0.000000 
 124.658340   350.000000     0.002857   339.550183     0.000000 
 124.675340   336.000000     0.002976   339.905944     0.000000 
 124.692340   317.000000     0.003155   340.218485     0.000000 
 124.709340   342.000000     0.002924   340.595212     0.000000 
 124.726340   329.000000     0.003040   340.982907     0.000000 
 124.743340   321.000000     0.003115   341.381970     0.000000 
 124.760340   351.000000     0.002849   341.792828     0.000000 
 124.777340   370.000000     0.002703   342.215919     0.000000 
 124.794340   371.000000     0.002695   342.651716     0.000000 
 124.811340   365.000000     0.002740   343.100699     0.000000 
 124.828340   368.000000     0.002717   343.563385     0.000000 
 124.845340   334.000000     0.002994   344.040298     0.000000 
 124.862340   349.000000     0.002865   344.532002     0.000000 
 124.879340   358.000000     0.002793   345.039071     0.000000 
 124.896340   335.000000     0.002985   345.562116     0.000000 
 124.913340   331.000000     0.003021   346.101760     0.000000 
 124.930340   334.000000     0.002994   346.658668     0.000000 
 124.947340   320.000000     0.003125   347.233512     0.000000 
 124.964340   324.000000     0.003086   347.827010     0.000000 
 124.981340   355.000000     0.002817   348.439888     0.000000 
 124.998340   325.000000     0.003077   349.072919     0.000000 
 125.015340   339.000000     0.002950   349.726881     0.000000 
 125.032340   350.000000     0.002857   350.402607     0.000000 
 125.049340   318.000000     0.003145   351.100928     0.000000 
 125.066340   317.000000     0.003155   351.822734     0.000000 
 125.083340   354.000000     0.002825   352.568914     0.000000 
 125.100340   348.000000     0.002874   353.340413     0.000000 
 125.117340   370.000000     0.002703   354.138177     0.000000 
 125.134340   349.000000     0.002865   354.963212     0.000000 
 125.151340   342.000000     0.002924   355.816515     0.000000 
 125.168340   336.000000     0.002976   356.699151     0.000000 
 125.185340   338.000000     0.002959   357.612172     0.000000 
 125.202340   353.000000     0.002833   358.556700     0.000000 
 125.219340   330.000000     0.003030   359.533840     0.000000 
 125.236340   361.000000     0.002770   360.544767     0.000000 
 125.253340   363.000000     0.002755   361.590637     0.000000 
 125.270340   359.000000     0.002786   362.672679     0.000000 
 125.287340   340.000000     0.002941   363.792095     0.000000 
 125.304340   345.000000     0.002899   364.950163     0.000000 
 125.321340   320.000000     0.003125   366.148129     0.000000 
 125.338340   330.000000     0.003030   367.387315     0.000000 
 125.355350   326.000000     0.003067   368.669775     0.000000 
 125.372350   332.000000     0.003012   369.995360     0.000000 
 125.389350   355.000000     0.002817   371.366135     0.000000 
 125.406350   345.000000     0.002899   372.783492     0.000000 
 125.423350   335.000000     0.002985   374.248780     0.000000 
 125.440350   357.000000     0.002801   375.595994     0.000000 
 125.457350   340.000000     0.002941   377.161860     0.000000 
 125.474350   339.000000     0.002950   378.779880     0.000000 
 125.491350   353.000000     0.002833   380.451435     0.000000 
 125.508350   332.000000     0.003012   382.177972     0.000000 
 125.525350   348.000000     0.002874   383.960872     0.000000 
 125.542350   353.000000     0.002833   385.801583     0.000000 
 125.559350   371.000000     0.002695   387.701472     0.000000 
 125.576350   383.000000     0.002611   389.661977     0.000000 
 125.593350   354.000000     0.002825   391.684443     0.000000 
 125.610350   343.000000     0.002915   393.770280     0.000000 
 125.627350   354.000000     0.002825   395.920797     0.000000 
 125.644350   380.000000     0.002632   398.137363     0.000000 
 125.661350   396.000000     0.002525   400.421233     0.000000 
 125.678350   384.000000     0.002604   402.773720     0.000000 
 125.695350   364.000000     0.002747   405.196006     0.000000 
 125.712350   363.000000     0.002755   407.689328     0.000000 
 125.729350   382.000000     0.002618   410.254776     0.000000 
 125.746350   347.000000     0.002882   412.893489     0.000000 
 125.763350   389.000000     0.002571   415.606442     0.000000 
 125.780350   379.000000     0.002639   418.394651     0.000000 
 125.797350   371.000000     0.002695   421.258949     0.000000 
 125.814350   395.000000     0.002532   424.200203     0.000000 
 125.831350   365.000000     0.002740   427.219077     0.000000 
 125.848350   349.000000     0.002865   430.316254     0.000000 
 125.865350   357.000000     0.002801   433.492198     0.000000 
 125.882350   381.000000     0.002625   436.747377     0.000000 
 125.899350   364.000000     0.002747   440.082016     0.000000 
 125.916350   371.000000     0.002695   443.496327     0.000000 
 125.933350   409.000000     0.002445   446.990259     0.000000 
 125.950350   418.000000     0.002392   450.563733     0.000000 
 125.967350   355.000000     0.002817   454.216374     0.000000 
 125.984350   380.000000     0.002632   457.947767     0.000000 
 126.001350   382.000000     0.002618   461.757176     0.000000 
 126.018350   429.000000     0.002331   465.643801     0.000000 
 126.035350   379.000000     0.002639   469.606500     0.000000 
 126.052350   404.000000     0.002475   473.644046     0.000000 
 126.069350   422.000000     0.002370   477.754852     0.000000 
 126.086350   406.000000     0.002463   481.937221     0.000000 
 126.103350   413.000000     0.002421   486.189085     0.000000 
 126.120350   428.000000     0.002336   490.508247     0.000000 
 126.137350   442.000000     0.002262   494.892130     0.000000 
 126.154350   435.000000     0.002299   499.338015     0.000000 
 126.171350   461.000000     0.002169   503.842804     0.000000 
 126.188350   474.000000     0.002110   508.403253     0.000000 
 126.205350   480.000000     0.002083   513.015750     0.000000 
 126.222350   449.000000     0.002227   517.676543     0.000000 
 126.239350   480.000000     0.002083   522.381540     0.000000 
 126.256360   520.000000     0.001923   527.129322     0.000000 
 126.273360   489.000000     0.002045   531.909787     0.000000 
 126.290360   519.000000     0.001927   536.721107     0.000000 
 126.307360   508.000000     0.001969   541.558423     0.000000 
 126.324360   531.000000     0.001883   546.416833     0.000000 
 126.341360   522.000000     0.001916   551.291254     0.000000 
 126.358360   545.000000     0.001835   556.176613     0.000000 
 126.375360   560.000000     0.001786   561.067735     0.000000 
 126.392360   537.000000     0.001862   565.959513     0.000000 
 126.409360   555.000000     0.001802   570.846820     0.000000 
 126.426360   543.000000     0.001842   575.724657     0.000000 
 126.443360   565.000000     0.001770   580.588078     0.000000 
 126.460360   549.000000     0.001821   585.432315     0.000000 
 126.477360   546.000000     0.001832   590.252721     0.000000 
 126.494360   551.000000     0.001815   595.044848     0.000000 
 126.511360   572.000000     0.001748   599.804421     0.000000 
 126.528360   602.000000     0.001661   604.527364     0.000000 
 126.545360   578.000000     0.001730   609.209799     0.000000 
 126.562360   583.000000     0.001715   613.848008     0.000000 
 126.579360   587.000000     0.001704   618.438475     0.000000 
 126.596360   582.000000     0.001718   622.977787     0.000000 
 126.613360   610.000000     0.001639   627.462701     0.000000 
 126.630360   611.000000     0.001637   631.889990     0.000000 
 126.647360   594.000000     0.001684   636.256556     0.000000 
 126.664360   598.000000     0.001672   640.559220     0.000000 
 126.681360   628.000000     0.001592   644.794881     0.000000 
 126.698360   629.000000     0.001590   648.960248     0.000000 
 126.715360   618.000000     0.001618   652.945131     0.000000 
 126.732360   629.000000     0.001590   656.960197     0.000000 
 126.749360   605.000000     0.001653   660.894682     0.000000 
 126.766360   604.000000     0.001656   664.744708     0.000000 
 126.783360   618.000000     0.001618   668.506447     0.000000 
 126.800360   629.000000     0.001590   672.175658     0.000000 
 126.817360   617.000000     0.001621   675.748201     0.000000 
 126.834360   585.000000     0.001709   679.219520     0.000000 
 126.851360   588.000000     0.001701   682.585246     0.000000 
 126.868360   604.000000     0.001656   685.840630     0.000000 
 126.885360   553.000000     0.001808   688.981240     0.000000 
 126.902360   612.000000     0.001634   692.002322     0.000000 
 126.919360   621.000000     0.001610   694.899590     0.000000 
 126.936360   621.000000     0.001610   697.668529     0.000000 
 126.953360   632.000000     0.001582   700.305237     0.000000 
 126.970360   618.000000     0.001618   702.805687     0.000000 
 126.987360   586.000000     0.001706   705.166609     0.000000 
 127.004360   595.000000     0.001681   707.384688     0.000000 
 127.021360   602.000000     0.001661   709.457484     0.000000 
 127.038360   608.000000     0.001645   711.311724     0.000000 
 127.055360   633.000000     0.001580   713.087786     0.000000 
 127.072360   587.000000     0.001704   714.713233     0.000000 
 127.089360   587.000000     0.001704   716.187570     0.000000 
 127.106360   605.000000     0.001653   717.510356     0.000000 
 127.123360   569.000000     0.001757   718.682039     0.000000 
 127.140360   587.000000     0.001704   719.703058     0.000000 
 127.157370   580.000000     0.001724   720.575100     0.000000 
 127.174370   616.000000     0.001623   721.298287     0.000000 
 127.191370   605.000000     0.001653   721.874925     0.000000 
 127.208370   593.000000     0.001686   722.306610     0.000000 
 127.225370   611.000000     0.001637   722.595362     0.000000 
 127.242370   590.000000     0.001695   722.742937     0.000000 
 127.259370   583.000000     0.001715   722.751341     0.000000 
 127.276370   583.000000     0.001715   722.622224     0.000000 
 127.293370   573.000000     0.001745   722.357331     0.000000 
 127.310370   601.000000     0.001664   721.957980     0.000000 
 127.327370   590.000000     0.001695   721.425466     0.000000 
 127.344370   536.000000     0.001866   720.760628     0.000000 
 127.361370   566.000000     0.001767   719.964216     0.000000 
 127.378370   568.000000     0.001761   719.036544     0.000000 
 127.395370   568.000000     0.001761   717.977810     0.000000 
 127.412370   536.000000     0.001866   716.787858     0.000000 
 127.429370   568.000000     0.001761   715.466441     0.000000 
 127.446370   565.000000     0.001770   714.013080     0.000000 
 127.463370   532.000000     0.001880   712.427273     0.000000 
 127.480370   533.000000     0.001876   710.708445     0.000000 
 127.497370   538.000000     0.001859   708.856094     0.000000 
 127.514370   538.000000     0.001859   706.869819     0.000000 
 127.531370   560.000000     0.001786   704.749405     0.000000 
 127.548370   544.000000     0.001838   702.494911     0.000000 
 127.565370   508.000000     0.001969   700.106689     0.000000 
 127.582370   539.000000     0.001855   697.585516     0.000000 
 127.599370   550.000000     0.001818   694.932543     0.000000 
 127.616370   540.000000     0.001852   692.149467     0.000000 
 127.633370   562.000000     0.001779   689.238406     0.000000 
 127.650370   528.000000     0.001894   686.202078     0.000000 
 127.667370   530.000000     0.001887   683.043636     0.000000 
 127.684370   536.000000     0.001866   679.766850     0.000000 
 127.701370   532.000000     0.001880   676.375864     0.000000 
 127.718370   513.000000     0.001949   672.875411     0.000000 
 127.735370   530.000000     0.001887   669.270508     0.000000 
 127.752370   553.000000     0.001808   665.566678     0.000000 
 127.769370   529.000000     0.001890   661.769606     0.000000 
 127.786370   516.000000     0.001938   657.885380     0.000000 
 127.803370   526.000000     0.001901   653.920100     0.000000 
 127.820370   504.000000     0.001984   649.880150     0.000000 
 127.837370   512.000000     0.001953   645.771787     0.000000 
 127.854370   489.000000     0.002045   641.601429     0.000000 
 127.871370   537.000000     0.001862   637.375223     0.000000 
 127.888370   505.000000     0.001980   633.099384     0.000000 
 127.905370   511.000000     0.001957   628.779743     0.000000 
 127.922370   541.000000     0.001848   624.422111     0.000000 
 127.939370   513.000000     0.001949   620.031840     0.000000 
 127.956370   489.000000     0.002045   615.614207     0.000000 
 127.973370   495.000000     0.002020   611.173984     0.000000 
 127.990370   488.000000     0.002049   606.715850     0.000000 
 128.007370   463.000000     0.002160   602.243960     0.000000 
 128.024370   484.000000     0.002066   597.762386     0.000000 
 128.041380   514.000000     0.001946   593.272054     0.000000 
 128.058380   479.000000     0.002088   588.781754     0.000000 
 128.075380   498.000000     0.002008   584.291903     0.000000 
 128.092380   465.000000     0.002151   579.805535     0.000000 
 128.109380   468.000000     0.002137   575.325285     0.000000 
 128.126380   492.000000     0.002033   570.853830     0.000000 
 128.143380   517.000000     0.001934   566.393508     0.000000 
 128.160380   495.000000     0.002020   561.946750     0.000000 
 128.177380   467.000000     0.002141   557.515713     0.000000 
 128.194380   502.000000     0.001992   553.102698     0.000000 
 128.211380   437.000000     0.002288   548.709777     0.000000 
 128.228380   446.000000     0.002242   544.339209     0.000000 
 128.245380   473.000000     0.002114   539.993062     0.000000 
 128.262380   466.000000     0.002146   535.673609     0.000000 
 128.279380   445.000000     0.002247   531.382962     0.000000 
 128.296380   417.000000     0.002398   527.123433     0.000000 
 128.313380   429.000000     0.002331   522.897189     0.000000 
 128.330380   452.000000     0.002212   518.706584     0.000000 
 128.347380   441.000000     0.002268   514.553821     0.000000 
 128.364380   422.000000     0.002370   510.441266     0.000000 
 128.381380   421.000000     0.002375   506.371128     0.000000 
 128.398380   433.000000     0.002309   502.345732     0.000000 
 128.415380   438.000000     0.002283   498.367241     0.000000 
 128.432380   430.000000     0.002326   494.437888     0.000000 
 128.449380   428.000000     0.002336   490.537798     0.000000 
 128.466380   424.000000     0.002358   486.704140     0.000000 
 128.483380   417.000000     0.002398   482.934539     0.000000 
 128.500380   426.000000     0.002347   479.222009     0.000000 
 128.517380   426.000000     0.002347   475.568243     0.000000 
 128.534380   421.000000     0.002375   471.974893     0.000000 
 128.551380   414.000000     0.002415   468.443412     0.000000 
 128.568380   406.000000     0.002463   464.975182     0.000000 
 128.585380   426.000000     0.002347   461.571397     0.000000 
 128.602380   415.000000     0.002410   458.233155     0.000000 
 128.619380   414.000000     0.002415   454.961380     0.000000 
 128.636380   414.000000     0.002415   451.756883     0.000000 
 128.653380   426.000000     0.002347   448.620319     0.000000 
 128.670380   426.000000     0.002347   445.552219     0.000000 
 128.687380   441.000000     0.002268   442.552980     0.000000 
 128.704380   404.000000     0.002475   439.622871     0.000000 
 128.721380   425.000000     0.002353   436.762045     0.000000 
 128.738380   403.000000     0.002481   433.970531     0.000000 
 128.755380   402.000000     0.002488   431.248260     0.000000 
 128.772380   405.000000     0.002469   428.595043     0.000000 
 128.789380   415.000000     0.002410   426.010617     0.000000 
 128.806380   378.000000     0.002646   423.494600     0.000000 
 128.823380   406.000000     0.002463   421.046560     0.000000 
 128.840380   382.000000     0.002618   418.612548     0.000000 
 128.857380   394.000000     0.002538   416.298906     0.000000 
 128.874380   395.000000     0.002532   414.051431     0.000000 
 128.891380   423.000000     0.002364   411.869420     0.000000 
 128.908380   410.000000     0.002439   409.752074     0.000000 
 128.925380   396.000000     0.002525   407.698592     0.000000 
 128.942390   388.000000     0.002577   405.706929     0.000000 
 128.959390   392.000000     0.002551   403.778545     0.000000 
 128.976390   377.000000     0.002653   401.911285     0.000000 
 128.993390   415.000000     0.002410   400.104207     0.000000 
 129.010390   431.000000     0.002320   398.356291     0.000000 
 129.027390   410.000000     0.002439   396.666548     0.000000 
 129.044390   414.000000     0.002415   395.033918     0.000000 
 129.061390   429.000000     0.002331   393.457381     0.000000 
 129.078390   399.000000     0.002506   391.935852     0.000000 
 129.095390   424.000000     0.002358   390.468290     0.000000 
 129.112390   401.000000     0.002494   389.005579     0.000000 
 129.129390   397.000000     0.002519   387.642840     0.000000 
 129.146390   446.000000     0.002242   386.330813     0.000000 
 129.163390   437.000000     0.002288   385.068450     0.000000 
 129.180390   423.000000     0.002364   383.854650     0.000000 
 129.197390   413.000000     0.002421   382.688369     0.000000 
 129.214390   408.000000     0.002451   381.568520     0.000000 
 129.231390   429.000000     0.002331   380.494070     0.000000 
 129.248390   436.000000     0.002294   379.463951     0.000000 
 129.265390   417.000000     0.002398   378.477146     0.000000 
 129.282390   430.000000     0.002326   377.532609     0.000000 
 129.299390   441.000000     0.002268   376.629347     0.000000 
 129.316390   411.000000     0.002433   375.736606     0.000000 
 129.333390   423.000000     0.002364   374.909501     0.000000 
 129.350390   432.000000     0.002315   374.124160     0.000000 
 129.367390   402.000000     0.002488   373.376168     0.000000 
 129.384390   402.000000     0.002488   372.664563     0.000000 
 129.401390   404.000000     0.002475   371.988430     0.000000 
 129.418390   429.000000     0.002331   371.346839     0.000000 
 129.435390   429.000000     0.002331   370.738907     0.000000 
 129.452390   411.000000     0.002433   370.163733     0.000000 
 129.469390   406.000000     0.002463   369.620463     0.000000 
 129.486390   423.000000     0.002364   369.108229     0.000000 
 129.503390   444.000000     0.002252   368.626206     0.000000 
 129.520390   448.000000     0.002232   368.173556     0.000000 
 129.537390   429.000000     0.002331   367.749481     0.000000 
 129.554390   391.000000     0.002558   367.353176     0.000000 
 129.571390   381.000000     0.002625   366.983867     0.000000 
 129.588390   411.000000     0.002433   366.640776     0.000000 
 129.605390   406.000000     0.002463   366.323156     0.000000 
 129.622390   410.000000     0.002439   366.030255     0.000000 
 129.639390   426.000000     0.002347   365.593977     0.000000 
 129.656390   427.000000     0.002342   365.348697     0.000000 
 129.673390   404.000000     0.002475   365.125980     0.000000 
 129.690390   394.000000     0.002538   364.925125     0.000000 
 129.707390   397.000000     0.002519   364.745446     0.000000 
 129.724390   398.000000     0.002513   364.586265     0.000000 
 129.741390   417.000000     0.002398   364.446918     0.000000 
 129.758390   428.000000     0.002336   364.326750     0.000000 
 129.775390   407.000000     0.002457   364.225116     0.000000 
 129.792390   432.000000     0.002315   364.141385     0.000000 
 129.809390   402.000000     0.002488   364.074934     0.000000 
 129.826390   396.000000     0.002525   364.025160     0.000000 
 129.843400   409.000000     0.002445   363.991449     0.000000 
 129.860400   399.000000     0.002506   363.973270     0.000000 
 129.877400   418.000000     0.002392   363.970026     0.000000 
 129.894400   430.000000     0.002326   363.981184     0.000000 
 129.911400   421.000000     0.002375   364.006208     0.000000 
 129.928400   405.000000     0.002469   364.044607     0.000000 
 129.945400   411.000000     0.002433   364.095887     0.000000 
 129.962400   429.000000     0.002331   364.159606     0.000000 
 129.979400   433.000000     0.002309   364.235320     0.000000 
 129.996400   420.000000     0.002381   364.322646     0.000000 
 130.013400   403.000000     0.002481   364.421196     0.000000 
 130.030400   421.000000     0.002375   364.530649     0.000000 
 130.047400   404.000000     0.002475   364.650682     0.000000 
 130.064400   404.000000     0.002475   364.781044     0.000000 
 130.081400   427.000000     0.002342   364.921478     0.000000 
 130.098400   428.000000     0.002336   365.071807     0.000000 
 130.115400   390.000000     0.002564   365.231843     0.000000 
 130.132400   386.000000     0.002591   365.401481     0.000000 
 130.149400   357.000000     0.002801   365.580603     0.000000 
 130.166400   377.000000     0.002653   365.769173     0.000000 
 130.183400   375.000000     0.002667   365.967136     0.000000 
 130.200400   401.000000     0.002494   366.174519     0.000000 
 130.217400   425.000000     0.002353   366.391324     0.000000 
 130.234400   432.000000     0.002315   366.617632     0.000000 
 130.251400   405.000000     0.002469   366.853489     0.000000 
 130.268400   392.000000     0.002551   367.099018     0.000000 
 130.285400   386.000000     0.002591   367.354297     0.000000 
 130.302400   385.000000     0.002597   367.619477     0.000000 
 130.319400   421.000000     0.002375   367.894654     0.000000 
 130.336400   410.000000     0.002439   368.179992     0.000000 
 130.353400   393.000000     0.002545   368.475593     0.000000 
 130.370400   393.000000     0.002545   368.781616     0.000000 
 130.387400   388.000000     0.002577   369.098156     0.000000 
 130.404400   409.000000     0.002445   369.425358     0.000000 
 130.421400   411.000000     0.002433   369.763293     0.000000 
 130.438400   410.000000     0.002439   370.112081     0.000000 
 130.455400   401.000000     0.002494   370.471761     0.000000 
 130.472400   411.000000     0.002433   370.842416     0.000000 
 130.489400   429.000000     0.002331   371.224046     0.000000 
 130.506400   418.000000     0.002392   371.616690     0.000000 
 130.523400   415.000000     0.002410   372.020302     0.000000 
 130.540400   427.000000     0.002342   372.434873     0.000000 
 130.557400   412.000000     0.002427   372.860306     0.000000 
 130.574400   379.000000     0.002639   373.296538     0.000000 
 130.591400   391.000000     0.002558   373.743422     0.000000 
 130.608400   429.000000     0.002331   374.200838     0.000000 
 130.625400   415.000000     0.002410   374.668584     0.000000 
 130.642400   409.000000     0.002445   375.146483     0.000000 
 130.659400   405.000000     0.002469   375.634278     0.000000 
 130.676400   383.000000     0.002611   376.131731     0.000000 
 130.693400   397.000000     0.002519   376.638528     0.000000 
 130.710400   378.000000     0.002646   377.154367     0.000000 
 130.727410   399.000000     0.002506   377.679184     0.000000 
 130.744410   411.000000     0.002433   378.211994     0.000000 
 130.761410   406.000000     0.002463   378.752665     0.000000 
 130.778410   406.000000     0.002463   379.300754     0.000000 
 130.795410   404.000000     0.002475   379.855754     0.000000 
 130.812410   399.000000     0.002506   380.417146     0.000000 
 130.829410   426.000000     0.002347   380.984347     0.000000 
 130.846410   411.000000     0.002433   381.556751     0.000000 
 130.863410   404.000000     0.002475   382.133696     0.000000 
 130.880410   454.000000     0.002203   382.714485     0.000000 
 130.897410   403.000000     0.002481   383.298371     0.000000 
 130.914410   398.000000     0.002513   383.884559     0.000000 
 130.931410   428.000000     0.002336   384.472217     0.000000 
 130.948410   393.000000     0.002545   385.060451     0.000000 
 130.965410   420.000000     0.002381   385.648344     0.000000 
 130.982410   431.000000     0.002320   386.234906     0.000000 
 130.999410   426.000000     0.002347   386.712121     0.000000 
 131.016410   446.000000     0.002242   387.293173     0.000000 
 131.033410   406.000000     0.002463   387.869757     0.000000 
 131.050410   446.000000     0.002242   388.440719     0.000000 
 131.067410   425.000000     0.002353   389.004950     0.000000 
 131.084410   450.000000     0.002222   389.561245     0.000000 
 131.101410   453.000000     0.002208   390.108471     0.000000 
 131.118410   497.000000     0.002012   390.606748     0.000000 
 131.135410   437.000000     0.002288   391.132367     0.000000 
 131.152410   401.000000     0.002494   391.645351     0.000000 
 131.169410   419.000000     0.002387   392.144625     0.000000 
 131.186410   467.000000     0.002141   392.629021     0.000000 
 131.203410   444.000000     0.002252   393.097551     0.000000 
 131.220410   440.000000     0.002273   393.549138     0.000000 
 131.237410   423.000000     0.002364   393.982920     0.000000 
 131.254410   411.000000     0.002433   394.397953     0.000000 
 131.271410   423.000000     0.002364   394.793535     0.000000 
 131.288410   432.000000     0.002315   395.168888     0.000000 
 131.305410   418.000000     0.002392   395.523502     0.000000 
 131.322410   441.000000     0.002268   395.856795     0.000000 
 131.339410   426.000000     0.002347   396.168470     0.000000 
 131.356410   408.000000     0.002451   396.458156     0.000000 
 131.373410   419.000000     0.002387   396.725777     0.000000 
 131.390410   424.000000     0.002358   396.971180     0.000000 
 131.407410   396.000000     0.002525   397.194507     0.000000 
 131.424410   401.000000     0.002494   397.395816     0.000000 
 131.441410   433.000000     0.002309   397.575451     0.000000 
 131.458410   428.000000     0.002336   397.733660     0.000000 
 131.475410   401.000000     0.002494   397.870962     0.000000 
 131.492410   403.000000     0.002481   397.987769     0.000000 
 131.509410   434.000000     0.002304   398.084738     0.000000 
 131.526410   427.000000     0.002342   398.162407     0.000000 
 131.543410   405.000000     0.002469   398.221534     0.000000 
 131.560410   421.000000     0.002375   398.262741     0.000000 
 131.577410   427.000000     0.002342   398.286845     0.000000 
 131.594410   430.000000     0.002326   398.294513     0.000000 
 131.611410   414.000000     0.002415   398.286583     0.000000 
 131.628420   397.000000     0.002519   398.263711     0.000000 
 131.645420   406.000000     0.002463   398.226749     0.000000 
 131.662420   395.000000     0.002532   398.176337     0.000000 
 131.679420   406.000000     0.002463   398.113261     0.000000 
 131.696420   415.000000     0.002410   398.038124     0.000000 
 131.713420   396.000000     0.002525   397.951654     0.000000 
 131.730420   415.000000     0.002410   397.854395     0.000000 
 131.747420   441.000000     0.002268   397.747008     0.000000 
 131.764420   415.000000     0.002410   397.629975     0.000000 
 131.781420   439.000000     0.002278   397.503890     0.000000 
 131.798420   428.000000     0.002336   397.369176     0.000000 
 131.815420   420.000000     0.002381   397.226368     0.000000 
 131.832420   424.000000     0.002358   397.075841     0.000000 
 131.849420   410.000000     0.002439   396.918087     0.000000 
 131.866420   451.000000     0.002217   396.753446     0.000000 
 131.883420   395.000000     0.002532   396.582385     0.000000 
 131.900420   408.000000     0.002451   396.405228     0.000000 
 131.917420   423.000000     0.002364   396.218019     0.000000 
 131.934420   402.000000     0.002488   396.029926     0.000000 
 131.951420   447.000000     0.002237   395.836987     0.000000 
 131.968420   436.000000     0.002294   395.639552     0.000000 
 131.985420   400.000000     0.002500   395.438105     0.000000 
 132.002420   428.000000     0.002336   395.233025     0.000000 
 132.019420   419.000000     0.002387   395.024832     0.000000 
 132.036420   447.000000     0.002237   394.813938     0.000000 
 132.053420   404.000000     0.002475   394.600900     0.000000 
 132.070420   414.000000     0.002415   394.386172     0.000000 
 132.087420   412.000000     0.002427   394.170342     0.000000 
 132.104420   433.000000     0.002309   393.953900     0.000000 
 132.121420   433.000000     0.002309   393.737466     0.000000 
 132.138420   432.000000     0.002315   393.521559     0.000000 
 132.155420   401.000000     0.002494   393.306820     0.000000 
 132.172420   401.000000     0.002494   393.093789     0.000000 
 132.189420   429.000000     0.002331   392.883119     0.000000 
 132.206420   420.000000     0.002381   392.675362     0.000000 
 132.223420   422.000000     0.002370   392.471174     0.000000 
 132.240420   426.000000     0.002347   392.271110     0.000000 
 132.257420   386.000000     0.002591   392.075821     0.000000 
 132.274420   391.000000     0.002558   391.885860     0.000000 
 132.291420   402.000000     0.002488   391.701869     0.000000 
 132.308420   419.000000     0.002387   391.524393     0.000000 
 132.325420   406.000000     0.002463   391.354063     0.000000 
 132.342420   398.000000     0.002513   391.191417     0.000000 
 132.359420   414.000000     0.002415   391.037074     0.000000 
 132.376420   426.000000     0.002347   390.891567     0.000000 
 132.393420   413.000000     0.002421   390.755508     0.000000 
 132.410420   410.000000     0.002439   390.629424     0.000000 
 132.427420   417.000000     0.002398   390.513924     0.000000 
 132.444420   401.000000     0.002494   390.409535     0.000000 
 132.461420   425.000000     0.002353   390.316866     0.000000 
 132.478420   419.000000     0.002387   390.236445     0.000000 
 132.495420   380.000000     0.002632   390.168884     0.000000 
 132.512430   394.000000     0.002538   390.114685     0.000000 
 132.529430   391.000000     0.002558   390.074524     0.000000 
 132.546430   373.000000     0.002681   390.048901     0.000000 
 132.563430   391.000000     0.002558   390.038423     0.000000 
 132.580430   399.000000     0.002506   390.043623     0.000000 
 132.597430   363.000000     0.002755   390.065104     0.000000 
 132.614430   356.000000     0.002809   390.103385     0.000000 
 132.631430   390.000000     0.002564   390.159055     0.000000 
 132.648430   414.000000     0.002415   390.232614     0.000000 
 132.665430   429.000000     0.002331   390.324627     0.000000 
 132.682430   374.000000     0.002674   390.435562     0.000000 
 132.699430   404.000000     0.002475   390.565946     0.000000 
 132.716430   403.000000     0.002481   390.716205     0.000000 
 132.733430   376.000000     0.002660   390.886820     0.000000 
 132.750430   395.000000     0.002532   391.078163     0.000000 
 132.767430   408.000000     0.002451   391.290653     0.000000 
 132.784430   374.000000     0.002674   391.524599     0.000000 
 132.801430   362.000000     0.002762   391.780355     0.000000 
 132.818430   365.000000     0.002740   392.058152     0.000000 
 132.835430   350.000000     0.002857   392.358270     0.000000 
 132.852430   382.000000     0.002618   392.680861     0.000000 
 132.869430   411.000000     0.002433   392.995322     0.000000 
 132.886430   357.000000     0.002801   393.363386     0.000000 
 132.903430   410.000000     0.002439   393.754301     0.000000 
 132.920430   410.000000     0.002439   394.168049     0.000000 
 132.937430   359.000000     0.002786   394.604657     0.000000 
 132.954430   377.000000     0.002653   395.064022     0.000000 
 132.971430   357.000000     0.002801   395.546082     0.000000 
 132.988430   359.000000     0.002786   396.050648     0.000000 
 133.005430   426.000000     0.002347   396.577574     0.000000 
 133.022430   392.000000     0.002551   397.126588     0.000000 
 133.039430   406.000000     0.002463   397.697457     0.000000 
 133.056430   405.000000     0.002469   398.289825     0.000000 
 133.073430   401.000000     0.002494   398.903377     0.000000 
 133.090430   384.000000     0.002604   399.537673     0.000000 
 133.107430   348.000000     0.002874   400.192310     0.000000 
 133.124430   384.000000     0.002604   400.866768     0.000000 
 133.141430   387.000000     0.002584   401.560551     0.000000 
 133.158430   373.000000     0.002681   402.273053     0.000000 
 133.175430   415.000000     0.002410   403.003683     0.000000 
 133.192430   447.000000     0.002237   403.751740     0.000000 
 133.209430   398.000000     0.002513   404.516531     0.000000 
 133.226430   410.000000     0.002439   405.297257     0.000000 
 133.243430   429.000000     0.002331   406.093108     0.000000 
 133.260430   399.000000     0.002506   406.903177     0.000000 
 133.277430   395.000000     0.002532   407.726528     0.000000 
 133.294430   415.000000     0.002410   408.562136     0.000000 
 133.311430   436.000000     0.002294   409.408928     0.000000 
 133.328430   442.000000     0.002262   410.265746     0.000000 
 133.345430   430.000000     0.002326   411.131370     0.000000 
 133.362430   427.000000     0.002342   412.004506     0.000000 
 133.379430   426.000000     0.002347   412.883774     0.000000 
 133.396430   419.000000     0.002387   413.767738     0.000000 
 133.413440   423.000000     0.002364   414.655374     0.000000 
 133.430440   413.000000     0.002421   415.544056     0.000000 
 133.447440   425.000000     0.002353   416.432597     0.000000 
 133.464440   453.000000     0.002208   417.319271     0.000000 
 133.481440   452.000000     0.002212   418.202213     0.000000 
 133.498440   451.000000     0.002217   419.079566     0.000000 
 133.515440   434.000000     0.002304   419.949320     0.000000 
 133.532440   454.000000     0.002203   420.809508     0.000000 
 133.549440   469.000000     0.002132   421.657996     0.000000 
 133.566440   482.000000     0.002075   422.492734     0.000000 
 133.583440   470.000000     0.002128   423.263486     0.000000 
 133.600440   457.000000     0.002188   424.064276     0.000000 
 133.617440   467.000000     0.002141   424.844719     0.000000 
 133.634440   434.000000     0.002304   425.602720     0.000000 
 133.651440   473.000000     0.002114   426.336000     0.000000 
 133.668440   422.000000     0.002370   427.042512     0.000000 
 133.685440   447.000000     0.002237   427.720032     0.000000 
 133.702440   491.000000     0.002037   428.366618     0.000000 
 133.719440   463.000000     0.002160   428.980158     0.000000 
 133.736440   475.000000     0.002105   429.558874     0.000000 
 133.753440   506.000000     0.001976   430.100822     0.000000 
 133.770440   507.000000     0.001972   430.604445     0.000000 
 133.787440   503.000000     0.001988   431.068021     0.000000 
 133.804440   489.000000     0.002045   431.457069     0.000000 
 133.821440   480.000000     0.002083   431.836590     0.000000 
 133.838440   491.000000     0.002037   432.172340     0.000000 
 133.855440   495.000000     0.002020   432.463179     0.000000 
 133.872440   484.000000     0.002066   432.708450     0.000000 
 133.889440   493.000000     0.002028   432.907345     0.000000 
 133.906440   484.000000     0.002066   433.059546     0.000000 
 133.923440   511.000000     0.001957   433.164576     0.000000 
 133.940440   502.000000     0.001992   433.222453     0.000000 
 133.957440   499.000000     0.002004   433.233025     0.000000 
 133.974440   485.000000     0.002062   433.196614     0.000000 
 133.991440   495.000000     0.002020   433.113368     0.000000 
 134.008440   526.000000     0.001901   432.983880     0.000000 
 134.025440   485.000000     0.002062   432.808554     0.000000 
 134.042440   529.000000     0.001890   432.588209     0.000000 
 134.059440   500.000000     0.002000   432.323454     0.000000 
 134.076440   471.000000     0.002123   432.015278     0.000000 
 134.093440   481.000000     0.002079   431.664443     0.000000 
 134.110440   470.000000     0.002128   431.272049     0.000000 
 134.127440   488.000000     0.002049   430.838956     0.000000 
 134.144440   504.000000     0.001984   430.366321     0.000000 
 134.161440   515.000000     0.001942   429.855051     0.000000 
 134.178440   494.000000     0.002024   429.306308     0.000000 
 134.195440   473.000000     0.002114   428.721000     0.000000 
 134.212440   480.000000     0.002083   428.100260     0.000000 
 134.229440   503.000000     0.001988   427.444960     0.000000 
 134.246440   504.000000     0.001984   426.756175     0.000000 
 134.263440   494.000000     0.002024   426.034718     0.000000 
 134.280440   491.000000     0.002037   425.281585     0.000000 
 134.297440   505.000000     0.001980   424.497525     0.000000 
 134.314450   493.000000     0.002028   423.682964     0.000000 
 134.331450   490.000000     0.002041   422.839545     0.000000 
 134.348450   511.000000     0.001957   421.967634     0.000000 
 134.365450   490.000000     0.002041   421.067861     0.000000 
 134.382450   460.000000     0.002174   420.141005     0.000000 
 134.399450   469.000000     0.002132   419.187659     0.000000 
 134.416450   503.000000     0.001988   418.208570     0.000000 
 134.433450   491.000000     0.002037   417.204318     0.000000 
 134.450450   462.000000     0.002165   416.175642     0.000000 
 134.467450   446.000000     0.002242   415.123137     0.000000 
 134.484450   452.000000     0.002212   414.047561     0.000000 
 134.501450   485.000000     0.002062   412.949554     0.000000 
 134.518450   490.000000     0.002041   411.829916     0.000000 
 134.535450   465.000000     0.002151   410.689352     0.000000 
 134.552450   458.000000     0.002183   409.528728     0.000000 
 134.569450   458.000000     0.002183   408.348650     0.000000 
 134.586450   464.000000     0.002155   407.150423     0.000000 
 134.603450   509.000000     0.001965   405.934744     0.000000 
 134.620450   466.000000     0.002146   404.702641     0.000000 
 134.637450   458.000000     0.002183   403.455087     0.000000 
 134.654450   465.000000     0.002151   402.193190     0.000000 
 134.671450   490.000000     0.002041   400.918011     0.000000 
 134.688450   482.000000     0.002075   399.630729     0.000000 
 134.705450   456.000000     0.002193   398.332483     0.000000 
 134.722450   517.000000     0.001934   397.024505     0.000000 
 134.739450   474.000000     0.002110   395.707990     0.000000 
 134.756450   508.000000     0.001969   394.384207     0.000000 
 134.773450   514.000000     0.001946   393.054387     0.000000 
 134.790450   439.000000     0.002278   391.719809     0.000000 
 134.807450   462.000000     0.002165   390.381716     0.000000 
 134.824450   439.000000     0.002278   389.041374     0.000000 
 134.841450   447.000000     0.002237   387.700017     0.000000 
 134.858450   482.000000     0.002075   386.358874     0.000000 
 134.875450   470.000000     0.002128   385.019145     0.000000 
 134.892450   505.000000     0.001980   383.682004     0.000000 
 134.909450   497.000000     0.002012   382.348599     0.000000 
 134.926450   458.000000     0.002183   381.020031     0.000000 
 134.943450   464.000000     0.002155   379.697379     0.000000 
 134.960450   456.000000     0.002193   378.381657     0.000000 
 134.977450   454.000000     0.002203   377.073865     0.000000 
#######	End powder diffraction data	#######
